@<TRIPOS>MOLECULE
*
  168   175     1     0     0
SMALL
bcc


@<TRIPOS>ATOM
      1 C           -1.6490    -0.6120     0.1320 c3         0 *         0.109829
      2 C3          -1.1600    -1.9510    -0.4590 c3         0 *         0.123671
      3 C4          -1.9950    -3.1220     0.1170 c3         0 *         0.103529
      4 C5          -1.1660    -4.4290     0.0520 c3         0 *         0.112100
      5 C6           0.1240    -4.3140     0.9030 c3         0 *         0.121100
      6 C7           0.6900    -2.8630     0.9280 c3         0 *         0.298757
      7 O            0.3000    -2.1430    -0.2610 os         0 *        -0.444029
      8 O1           2.1610    -2.8650     1.0090 os         0 *        -0.423314
      9 C8           2.9280    -1.5840     0.8390 c3         0 *         0.103529
     10 C9           2.2940    -0.3310     1.5060 c3         0 *         0.123671
     11 O2           2.8870     0.9270     0.9980 os         0 *        -0.444029
     12 C10          4.2020     0.8530     0.3700 c3         0 *         0.298757
     13 C11          4.2160    -0.1390    -0.8300 c3         0 *         0.121100
     14 C12          3.2020    -1.2930    -0.6540 c3         0 *         0.112100
     15 O3           3.6540    -2.4780    -1.3200 oh         0 *        -0.595371
     16 O4           3.9590     0.5410    -2.0720 oh         0 *        -0.585229
     17 O5           4.5570     2.2040    -0.0800 os         0 *        -0.423314
     18 C13          4.3560     3.3180     0.8790 c3         0 *         0.103529
     19 C14          3.0090     4.1720     0.7240 c3         0 *         0.123671
     20 O6           2.4540     5.2310     1.4310 os         0 *        -0.444029
     21 C15          3.5290     6.3520     1.4300 c3         0 *         0.298757
     22 C16          4.8730     5.9890     0.5260 c3         0 *         0.121100
     23 C17          5.4510     4.4830     0.5670 c3         0 *         0.112100
     24 O7           6.5300     4.4010     1.5000 oh         0 *        -0.595371
     25 O8           4.6780     6.3280    -0.8600 oh         0 *        -0.585229
     26 O9           2.8680     7.5860     0.9670 os         0 *        -0.423314
     27 C18          1.4820     7.8090     1.4650 c3         0 *         0.103529
     28 C19          0.2810     7.2420     0.5700 c3         0 *         0.123671
     29 O10         -1.0800     7.0950     0.7650 os         0 *        -0.444029
     30 C20         -1.6010     8.4920     1.1460 c3         0 *         0.298757
     31 C21         -0.4650     9.6940     0.9860 c3         0 *         0.121100
     32 C22          1.0690     9.3760     1.3960 c3         0 *         0.112100
     33 O11          1.3970    10.0230     2.6280 oh         0 *        -0.595371
     34 O12         -0.4450    10.2060    -0.3600 oh         0 *        -0.585229
     35 O13         -2.7930     8.7180     0.3320 os         0 *        -0.423314
     36 C23         -3.8380     7.6690     0.4160 c3         0 *         0.103529
     37 C24         -4.1950     7.0860    -0.9750 c3         0 *         0.123671
     38 O14         -5.1990     5.9830    -0.8480 os         0 *        -0.444029
     39 C25         -5.8550     5.8250     0.4450 c3         0 *         0.298757
     40 C26         -6.2930     7.1940     1.0400 c3         0 *         0.121100
     41 C27         -5.1220     8.2160     1.0830 c3         0 *         0.112100
     42 O15         -4.8670     8.6720     2.4200 oh         0 *        -0.595371
     43 O16         -7.4120     7.7490     0.3270 oh         0 *        -0.585229
     44 O17         -6.9960     4.9210     0.2830 os         0 *        -0.423314
     45 C28         -6.7720     3.5050    -0.1780 c3         0 *         0.103529
     46 C29         -5.5220     2.8160     0.4430 c3         0 *         0.123671
     47 O18         -5.2270     1.5060    -0.1960 os         0 *        -0.444029
     48 C30         -6.2670     0.9480    -1.0370 c3         0 *         0.298757
     49 C31         -6.6140     1.9150    -2.2020 c3         0 *         0.121100
     50 C32         -6.7000     3.3900    -1.7230 c3         0 *         0.112100
     51 O19         -7.7950     4.0570    -2.3620 oh         0 *        -0.595371
     52 O20         -5.6710     1.8190    -3.2830 oh         0 *        -0.585229
     53 O21         -5.7950    -0.3470    -1.5060 os         0 *        -0.423314
     54 C33         -6.2030    -1.5610    -0.7350 c3         0 *         0.103529
     55 C34         -5.5620    -1.5760     0.6980 c3         0 *         0.123671
     56 O22         -4.7850    -2.7880     1.0790 os         0 *        -0.444029
     57 C35         -4.4220    -3.7590     0.0770 c3         0 *         0.298757
     58 O23         -3.2640    -3.2250    -0.6360 os         0 *        -0.423314
     59 C36         -5.6100    -4.0590    -0.8590 c3         0 *         0.121100
     60 C37         -5.9540    -2.7880    -1.6450 c3         0 *         0.112100
     61 O24         -7.0720    -3.0140    -2.5190 oh         0 *        -0.595371
     62 O25         -5.3260    -5.1510    -1.7510 oh         0 *        -0.585229
     63 C38         -6.6310    -1.3800     1.7910 c3         0 *         0.109829
     64 O26         -7.4770    -0.2500     1.5720 os         0 *        -0.429171
     65 C39         -8.4650    -0.1130     2.5890 c3         0 *         0.111986
     66 C40         -5.6640     2.6440     1.9660 c3         0 *         0.109829
     67 O27         -4.4640     2.0980     2.5250 os         0 *        -0.429171
     68 C2          -4.5960     1.8230     3.9180 c3         0 *         0.111986
     69 C41         -2.9410     6.5910    -1.7350 c3         0 *         0.109829
     70 O28         -3.1070     6.4420    -3.1550 os         0 *        -0.429171
     71 C1          -3.9280     5.3450    -3.5560 c3         0 *         0.111986
     72 C42          0.9450     6.9280    -0.7930 c3         0 *         0.109829
     73 O29          1.0720     8.1290    -1.5610 os         0 *        -0.429171
     74 C43          1.6660     7.8800    -2.8330 c3         0 *         0.111986
     75 C44          2.3670     3.6350    -0.5770 c3         0 *         0.109829
     76 O30          2.9980     4.2400    -1.7100 os         0 *        -0.429171
     77 C45          2.3750     3.8620    -2.9340 c3         0 *         0.111986
     78 C46          2.3930    -0.3600     3.0410 c3         0 *         0.109829
     79 O31          1.5710    -1.3840     3.6070 os         0 *        -0.429171
     80 C47          1.6510    -1.4160     5.0300 c3         0 *         0.111986
     81 O32          1.0890    -5.2590     0.4050 oh         0 *        -0.585229
     82 O33         -1.9090    -5.5770     0.4770 oh         0 *        -0.595371
     83 O34         -0.8850     0.4970    -0.3530 os         0 *        -0.429171
     84 C48         -1.3650     1.7370     0.1660 c3         0 *         0.111986
     85 H1          -1.5770    -0.6600     1.2210 h1         0 *         0.053486
     86 H2          -2.7000    -0.4840    -0.1380 h1         0 *         0.053486
     87 H           -1.3110    -1.9200    -1.5390 h1         0 *         0.101700
     88 H32         -2.2330    -2.9150     1.1630 h1         0 *         0.079129
     89 H33         -0.8730    -4.5690    -0.9920 h1         0 *         0.098414
     90 H34         -0.1070    -4.5630     1.9410 h1         0 *         0.082700
     91 H35          0.2810    -2.3360     1.7820 h2         0 *         0.073557
     92 H36          3.8940    -1.7660     1.3140 h1         0 *         0.079129
     93 H37          1.2400    -0.2700     1.2370 h1         0 *         0.101700
     94 H38          4.9130     0.5310     1.1240 h2         0 *         0.073557
     95 H39          5.2260    -0.5540    -0.8630 h1         0 *         0.082700
     96 H40          2.2620    -0.9720    -1.1070 h1         0 *         0.098414
     97 H41          3.0130    -3.1780    -1.1050 ho         0 *         0.414286
     98 H42          4.2730     1.4550    -1.9430 ho         0 *         0.424143
     99 H43          4.5630     2.8300     1.8670 h1         0 *         0.079129
    100 H44          3.7200     4.1830     1.4940 h1         0 *         0.101700
    101 H45          3.8380     6.4940     2.4600 h2         0 *         0.073557
    102 H46          5.6560     6.6520     0.8990 h1         0 *         0.082700
    103 H47          5.8620     4.2750    -0.4240 h1         0 *         0.098414
    104 H48          6.9970     3.5620     1.3470 ho         0 *         0.414286
    105 H49          4.0490     5.6810    -1.2420 ho         0 *         0.424143
    106 H50          1.5780     7.4870     2.5410 h1         0 *         0.079129
    107 H51          0.2810     7.5360     1.5770 h1         0 *         0.101700
    108 H52         -1.9000     8.4470     2.1880 h2         0 *         0.073557
    109 H53         -0.8180    10.5060     1.6230 h1         0 *         0.082700
    110 H54          1.6980     9.8240     0.6220 h1         0 *         0.098414
    111 H55          2.3630     9.9840     2.7370 ho         0 *         0.414286
    112 H56         -0.0480     9.5170    -0.9320 ho         0 *         0.424143
    113 H57         -3.4520     6.8560     1.0350 h1         0 *         0.079129
    114 H58         -4.6620     7.8760    -1.5670 h1         0 *         0.101700
    115 H59         -5.1470     5.3710     1.1280 h2         0 *         0.073557
    116 H60         -6.6170     6.9870     2.0620 h1         0 *         0.082700
    117 H61         -5.4270     9.0850     0.4960 h1         0 *         0.098414
    118 H62         -4.6240     7.9140     2.9770 ho         0 *         0.414286
    119 H63         -8.0240     7.0150     0.1420 ho         0 *         0.424143
    120 H64         -7.6600     2.9590     0.1480 h1         0 *         0.079129
    121 H65         -4.6440     3.4340     0.2470 h1         0 *         0.101700
    122 H66         -7.1590     0.8080    -0.4410 h2         0 *         0.073557
    123 H67         -7.5940     1.5990    -2.5660 h1         0 *         0.082700
    124 H68         -5.7750     3.8800    -2.0260 h1         0 *         0.098414
    125 H69         -7.6190     4.0700    -3.3180 ho         0 *         0.414286
    126 H70         -5.4300     0.8790    -3.3610 ho         0 *         0.424143
    127 H71         -7.2850    -1.4880    -0.6080 h1         0 *         0.079129
    128 H72         -4.8560    -0.7500     0.7700 h1         0 *         0.101700
    129 H73         -4.1400    -4.6720     0.5840 h2         0 *         0.073557
    130 H74         -6.4590    -4.3250    -0.2250 h1         0 *         0.082700
    131 H75         -5.0840    -2.5550    -2.2640 h1         0 *         0.098414
    132 H76         -7.8580    -3.2170    -1.9830 ho         0 *         0.414286
    133 H77         -6.0350    -5.1680    -2.4160 ho         0 *         0.424143
    134 H4          -6.1160    -1.2740     2.7480 h1         0 *         0.053486
    135 H18         -7.2380    -2.2860     1.8350 h1         0 *         0.053486
    136 H5          -9.0850     0.7610     2.3830 h1         0 *         0.038367
    137 H19         -7.9960     0.0190     3.5660 h1         0 *         0.038367
    138 H3          -9.1110    -0.9940     2.6190 h1         0 *         0.038367
    139 H6          -6.5100     1.9860     2.1670 h1         0 *         0.053486
    140 H20         -5.8760     3.6140     2.4220 h1         0 *         0.053486
    141 H21         -5.3900     1.0920     4.0920 h1         0 *         0.038367
    142 H22         -4.8250     2.7360     4.4720 h1         0 *         0.038367
    143 H23         -3.6610     1.4120     4.3020 h1         0 *         0.038367
    144 H7          -2.5960     5.6570    -1.2870 h1         0 *         0.053486
    145 H24         -2.1490     7.3270    -1.5960 h1         0 *         0.053486
    146 H11         -3.6060     4.4190    -3.0730 h1         0 *         0.038367
    147 H12         -3.8550     5.2100    -4.6370 h1         0 *         0.038367
    148 H13         -4.9740     5.5380    -3.3130 h1         0 *         0.038367
    149 H8           0.2720     6.2500    -1.3210 h1         0 *         0.053486
    150 H25          1.8890     6.4010    -0.7080 h1         0 *         0.053486
    151 H9           1.0550     7.1860    -3.4140 h1         0 *         0.038367
    152 H26          2.6680     7.4600    -2.7130 h1         0 *         0.038367
    153 H80          1.7490     8.8150    -3.3900 h1         0 *         0.038367
    154 H10          1.3200     3.9440    -0.5570 h1         0 *         0.053486
    155 H27          2.3480     2.5510    -0.6470 h1         0 *         0.053486
    156 H14          1.3310     4.1840    -2.9500 h1         0 *         0.038367
    157 H28          2.4150     2.7790    -3.0690 h1         0 *         0.038367
    158 H81          2.8930     4.3330    -3.7710 h1         0 *         0.038367
    159 H15          2.0690     0.6130     3.4170 h1         0 *         0.053486
    160 H29          3.4370    -0.5060     3.3270 h1         0 *         0.053486
    161 H16          1.3210    -0.4660     5.4560 h1         0 *         0.038367
    162 H30          2.6760    -1.6160     5.3530 h1         0 *         0.038367
    163 H82          1.0080    -2.2090     5.4160 h1         0 *         0.038367
    164 H78          1.9590    -4.9520     0.7150 ho         0 *         0.424143
    165 H79         -1.3310    -6.3520     0.3650 ho         0 *         0.414286
    166 H17         -0.7650     2.5590    -0.2300 h1         0 *         0.038367
    167 H31         -1.2950     1.7530     1.2560 h1         0 *         0.038367
    168 H83         -2.4050     1.9000    -0.1250 h1         0 *         0.038367
@<TRIPOS>BOND
     1     1     2 1   
     2     1    83 1   
     3     1    85 1   
     4     1    86 1   
     5     2     3 1   
     6     2     7 1   
     7     2    87 1   
     8     3     4 1   
     9     3    58 1   
    10     3    88 1   
    11     4     5 1   
    12     4    82 1   
    13     4    89 1   
    14     5     6 1   
    15     5    81 1   
    16     5    90 1   
    17     6     7 1   
    18     6     8 1   
    19     6    91 1   
    20     8     9 1   
    21     9    10 1   
    22     9    14 1   
    23     9    92 1   
    24    10    11 1   
    25    10    78 1   
    26    10    93 1   
    27    11    12 1   
    28    12    13 1   
    29    12    17 1   
    30    12    94 1   
    31    13    14 1   
    32    13    16 1   
    33    13    95 1   
    34    14    15 1   
    35    14    96 1   
    36    15    97 1   
    37    16    98 1   
    38    17    18 1   
    39    18    19 1   
    40    18    23 1   
    41    18    99 1   
    42    19    20 1   
    43    19    75 1   
    44    19   100 1   
    45    20    21 1   
    46    21    22 1   
    47    21    26 1   
    48    21   101 1   
    49    22    23 1   
    50    22    25 1   
    51    22   102 1   
    52    23    24 1   
    53    23   103 1   
    54    24   104 1   
    55    25   105 1   
    56    26    27 1   
    57    27    28 1   
    58    27    32 1   
    59    27   106 1   
    60    28    29 1   
    61    28    72 1   
    62    28   107 1   
    63    29    30 1   
    64    30    31 1   
    65    30    35 1   
    66    30   108 1   
    67    31    32 1   
    68    31    34 1   
    69    31   109 1   
    70    32    33 1   
    71    32   110 1   
    72    33   111 1   
    73    34   112 1   
    74    35    36 1   
    75    36    37 1   
    76    36    41 1   
    77    36   113 1   
    78    37    38 1   
    79    37    69 1   
    80    37   114 1   
    81    38    39 1   
    82    39    40 1   
    83    39    44 1   
    84    39   115 1   
    85    40    41 1   
    86    40    43 1   
    87    40   116 1   
    88    41    42 1   
    89    41   117 1   
    90    42   118 1   
    91    43   119 1   
    92    44    45 1   
    93    45    46 1   
    94    45    50 1   
    95    45   120 1   
    96    46    47 1   
    97    46    66 1   
    98    46   121 1   
    99    47    48 1   
   100    48    49 1   
   101    48    53 1   
   102    48   122 1   
   103    49    50 1   
   104    49    52 1   
   105    49   123 1   
   106    50    51 1   
   107    50   124 1   
   108    51   125 1   
   109    52   126 1   
   110    53    54 1   
   111    54    55 1   
   112    54    60 1   
   113    54   127 1   
   114    55    56 1   
   115    55    63 1   
   116    55   128 1   
   117    56    57 1   
   118    57    58 1   
   119    57    59 1   
   120    57   129 1   
   121    59    60 1   
   122    59    62 1   
   123    59   130 1   
   124    60    61 1   
   125    60   131 1   
   126    61   132 1   
   127    62   133 1   
   128    63    64 1   
   129    63   134 1   
   130    63   135 1   
   131    64    65 1   
   132    65   136 1   
   133    65   137 1   
   134    65   138 1   
   135    66    67 1   
   136    66   139 1   
   137    66   140 1   
   138    67    68 1   
   139    68   141 1   
   140    68   142 1   
   141    68   143 1   
   142    69    70 1   
   143    69   144 1   
   144    69   145 1   
   145    70    71 1   
   146    71   146 1   
   147    71   147 1   
   148    71   148 1   
   149    72    73 1   
   150    72   149 1   
   151    72   150 1   
   152    73    74 1   
   153    74   151 1   
   154    74   152 1   
   155    74   153 1   
   156    75    76 1   
   157    75   154 1   
   158    75   155 1   
   159    76    77 1   
   160    77   156 1   
   161    77   157 1   
   162    77   158 1   
   163    78    79 1   
   164    78   159 1   
   165    78   160 1   
   166    79    80 1   
   167    80   161 1   
   168    80   162 1   
   169    80   163 1   
   170    81   164 1   
   171    82   165 1   
   172    83    84 1   
   173    84   166 1   
   174    84   167 1   
   175    84   168 1   
@<TRIPOS>SUBSTRUCTURE
     1 *           1 TEMP              0 ****  ****    0 ROOT
