@<TRIPOS>MOLECULE
*
  157   168     1     0     0
SMALL
bcc


@<TRIPOS>ATOM
      1 C            0.9040     0.0870    -0.2730 c3         0 *        -0.119700
      2 C1           0.0540     0.5530     0.7250 c3         0 *        -0.039700
      3 C2           0.2370     0.1490     2.0470 c3         0 *        -0.071600
      4 C3           1.3310    -0.6470     2.3840 c3         0 *        -0.029700
      5 C4           2.2030    -1.0960     1.3950 c3         0 *        -0.168700
      6 C5           1.9480    -0.7680     0.0620 c3         0 *         0.142800
      7 O            2.6700    -1.2980    -0.9820 os         0 *        -0.356600
      8 C6           3.6980    -2.3270    -0.9330 c3         0 *         0.131400
      9 C7           3.2500    -3.7020    -0.3920 c3         0 *         0.110100
     10 C8           4.4290    -4.6890    -0.3990 c3         0 *         0.126100
     11 C9           4.0310    -6.0430     0.2360 c3         0 *         0.109100
     12 C10          2.5070    -6.2510     0.3780 c3         0 *         0.107100
     13 C11          1.6750    -5.5980    -0.7670 c3         0 *         0.301900
     14 O1           2.1530    -4.2740    -1.1720 os         0 *        -0.441600
     15 O2           0.2800    -5.4600    -0.3580 os         0 *        -0.437600
     16 C12         -0.6660    -4.9350    -1.3910 c3         0 *         0.151100
     17 C13         -1.0990    -3.4060    -1.2590 c3         0 *         0.080100
     18 O3          -1.8440    -2.5470    -2.0440 os         0 *        -0.441600
     19 C14         -3.2590    -3.0790    -1.9410 c3         0 *         0.298100
     20 C15         -3.3400    -4.7210    -1.9060 c3         0 *         0.097100
     21 C16         -2.1680    -5.5340    -1.1560 c3         0 *         0.108100
     22 O4          -2.2170    -6.8850    -1.5860 oh         0 *        -0.595800
     23 O5          -4.5950    -5.1420    -1.3790 oh         0 *        -0.586400
     24 O6          -3.8020    -2.5450    -0.7060 os         0 *        -0.427000
     25 C17         -4.2730    -1.1290    -0.6550 c3         0 *         0.122600
     26 C18         -3.1460    -0.1250    -1.0200 c3         0 *         0.102100
     27 O7          -3.0870     1.0260    -0.1360 os         0 *        -0.440100
     28 C19         -4.3120     1.6490     0.2330 c3         0 *         0.298100
     29 C20         -5.2370     0.6460     0.9700 c3         0 *         0.105850
     30 C21         -4.8170    -0.8270     0.7600 c3         0 *         0.106600
     31 O8          -5.9460    -1.6450     1.0530 oh         0 *        -0.594300
     32 O9          -5.2710     0.9170     2.3720 oh         0 *        -0.586400
     33 O10         -3.9360     2.7890     1.0690 os         0 *        -0.427000
     34 C22         -3.6740     4.0970     0.4070 c3         0 *         0.122600
     35 C23         -2.6550     4.0380    -0.7740 c3         0 *         0.102100
     36 O11         -1.3710     4.6830    -0.5110 os         0 *        -0.440100
     37 C24         -1.2910     5.9490     0.2120 c3         0 *         0.298100
     38 C25         -2.6330     6.3640     0.8580 c3         0 *         0.105850
     39 C26         -3.2950     5.1260     1.4910 c3         0 *         0.106600
     40 O12         -4.4870     5.4500     2.1990 oh         0 *        -0.594300
     41 O13         -2.4200     7.4270     1.7880 oh         0 *        -0.586400
     42 O14         -0.2540     5.7790     1.2330 os         0 *        -0.427000
     43 C27          1.0570     5.2690     0.7710 c3         0 *         0.122600
     44 C28          1.8490     4.6100     1.9150 c3         0 *         0.102100
     45 O15          3.0080     3.8650     1.3690 os         0 *        -0.440100
     46 C29          3.5290     4.3170     0.0940 c3         0 *         0.298100
     47 C30          3.4120     5.8560    -0.0760 c3         0 *         0.105850
     48 C31          1.9630     6.3640     0.1540 c3         0 *         0.106600
     49 O16          1.4280     6.8750    -1.0630 oh         0 *        -0.594300
     50 O17          4.3070     6.5500     0.7910 oh         0 *        -0.586400
     51 O18          4.8940     3.8500    -0.0060 os         0 *        -0.427000
     52 C32          5.0750     2.4600    -0.5310 c3         0 *         0.122600
     53 C33          5.8860     1.4350     0.4030 c3         0 *         0.102100
     54 O19          6.2930     0.1040     0.2150 os         0 *        -0.440100
     55 C34          6.9380    -0.0060    -1.1850 c3         0 *         0.298100
     56 C35          7.1360     1.4100    -1.9790 c3         0 *         0.105850
     57 C36          6.0330     2.5680    -1.8450 c3         0 *         0.106600
     58 O20          5.2150     2.6230    -3.0070 oh         0 *        -0.594300
     59 O21          8.3970     1.9820    -1.6510 oh         0 *        -0.586400
     60 O22          8.2180    -0.6950    -1.0350 os         0 *        -0.427000
     61 C37          8.2170    -2.1580    -0.7660 c3         0 *         0.089100
     62 C38          7.3020    -2.9720    -1.7220 c3         0 *         0.080100
     63 O23          7.2360    -4.3810    -1.3270 os         0 *        -0.438600
     64 C39          6.8930    -4.6410     0.0580 c3         0 *         0.336900
     65 O24          5.5660    -4.0900     0.2940 os         0 *        -0.444600
     66 C40          7.9330    -3.9650     0.9760 c3         0 *         0.138100
     67 C41          7.9160    -2.4510     0.7220 c3         0 *         0.086100
     68 O25          8.8730    -1.7970     1.5460 oh         0 *        -0.606800
     69 O26          7.6950    -4.2330     2.3550 oh         0 *        -0.584800
     70 C42          7.7340    -2.8810    -3.1940 c3         0 *         0.117900
     71 O27          7.3330    -1.6560    -3.7940 oh         0 *        -0.605133
     72 C43          6.2500     2.2830     1.6400 c3         0 *         0.120400
     73 O28          7.2570     3.2440     1.3630 oh         0 *        -0.605133
     74 C44          0.9800     3.6670     2.7480 c3         0 *         0.120400
     75 O29          1.7940     3.0110     3.7040 oh         0 *        -0.605133
     76 C45         -3.2460     4.5790    -2.0860 c3         0 *         0.120400
     77 O30         -4.3180     3.7620    -2.5400 oh         0 *        -0.605133
     78 C46         -3.2000     0.3280    -2.4910 c3         0 *         0.120400
     79 O31         -4.4300     0.9640    -2.8190 oh         0 *        -0.605133
     80 C47         -0.5540    -3.0120     0.1380 c3         0 *         0.117900
     81 O32         -1.1270    -3.7410     1.2160 oh         0 *        -0.605133
     82 O33          2.0970    -5.7790     1.6620 oh         0 *        -0.599800
     83 O34          4.6080    -7.1200    -0.4950 oh         0 *        -0.599800
     84 BR          -1.0220     0.6560     3.3660 br         0 *        -0.072400
     85 H            0.7480     0.3580    -1.2850 hc         0 *         0.123700
     86 H3          -0.7470     1.2010     0.4820 hc         0 *         0.117700
     87 H4           1.4900    -0.9200     3.3960 hc         0 *         0.112700
     88 H5           3.0370    -1.6900     1.6600 hc         0 *         0.127700
     89 H1           4.0690    -2.4680    -1.9470 h1         0 *         0.075700
     90 H2           4.5110    -1.9490    -0.3130 h1         0 *         0.075700
     91 H6           2.8950    -3.5780     0.6300 h1         0 *         0.093700
     92 H7           4.7230    -4.8560    -1.4370 h1         0 *         0.088700
     93 H8           4.4500    -6.0590     1.2450 h1         0 *         0.089700
     94 H9           2.2920    -7.3190     0.3450 h1         0 *         0.058700
     95 H10          1.7220    -6.2360    -1.6410 h2         0 *         0.085700
     96 H11         -0.2310    -5.3120    -2.3530 h1         0 *         0.062700
     97 H12         -1.2230    -4.0500    -2.0730 h1         0 *         0.096700
     98 H13         -3.8490    -2.6980    -2.7660 h2         0 *         0.083900
     99 H14         -3.2930    -5.0260    -2.9520 h1         0 *         0.088300
    100 H15         -2.3840    -5.4980    -0.0870 h1         0 *         0.090700
    101 H16         -3.1270    -7.1840    -1.4660 ho         0 *         0.420500
    102 H17         -4.8430    -4.5020    -0.6920 ho         0 *         0.425000
    103 H18         -5.0990    -1.0360    -1.3610 h1         0 *         0.088300
    104 H19         -2.1890    -0.6080    -0.8470 h1         0 *         0.091950
    105 H20         -4.8070     2.0080    -0.6600 h2         0 *         0.083900
    106 H21         -6.2390     0.7870     0.5630 h1         0 *         0.088300
    107 H22         -4.0160    -1.0560     1.4670 h1         0 *         0.077200
    108 H23         -6.1950    -1.4580     1.9660 ho         0 *         0.420500
    109 H24         -4.6180     1.6180     2.5170 ho         0 *         0.425000
    110 H25         -4.6360     4.4050    -0.0050 h1         0 *         0.088300
    111 H26         -2.3820     3.0100    -0.9740 h1         0 *         0.091950
    112 H27         -0.9690     6.7230    -0.4730 h2         0 *         0.083900
    113 H28         -3.2880     6.7310     0.0690 h1         0 *         0.088300
    114 H29         -2.5780     4.6640     2.1720 h1         0 *         0.077200
    115 H30         -4.8070     4.6500     2.6310 ho         0 *         0.420500
    116 H31         -1.7560     7.1350     2.4220 ho         0 *         0.425000
    117 H32          0.8700     4.4990     0.0230 h1         0 *         0.088300
    118 H33          2.2420     5.3860     2.5760 h1         0 *         0.091950
    119 H34          2.9430     3.8500    -0.6900 h2         0 *         0.083900
    120 H35          3.7060     6.0720    -1.1040 h1         0 *         0.088300
    121 H36          2.0050     7.1840     0.8740 h1         0 *         0.077200
    122 H37          1.8540     7.7190    -1.2530 ho         0 *         0.420500
    123 H38          5.0730     5.9790     0.9360 ho         0 *         0.425000
    124 H39          4.0390     2.1470    -0.8220 h1         0 *         0.088300
    125 H40          5.4030     1.2920    -0.4940 h1         0 *         0.091950
    126 H41          6.2680    -0.6030    -1.7870 h2         0 *         0.083900
    127 H42          7.1970     1.1310    -3.0320 h1         0 *         0.088300
    128 H43          6.5720     3.5150    -1.7700 h1         0 *         0.077200
    129 H44          5.7350     2.9810    -3.7360 ho         0 *         0.420500
    130 H45          8.9520     1.2600    -1.3190 ho         0 *         0.425000
    131 H46          9.2420    -2.4830    -0.9470 h1         0 *         0.088300
    132 H47          6.2840    -2.6050    -1.6490 h1         0 *         0.054700
    133 H48          6.8740    -5.7100     0.2290 h2         0 *         0.112700
    134 H49          8.9150    -4.3550     0.7050 h1         0 *         0.066700
    135 H50          6.9210    -2.0820     0.9710 h1         0 *         0.064700
    136 H51          8.8190    -0.8540     1.3370 ho         0 *         0.420500
    137 H52          8.1640    -3.5400     2.8400 ho         0 *         0.429000
    138 H61          7.2660    -3.7060    -3.7350 h1         0 *         0.063033
    139 H67          8.8170    -3.0000    -3.2590 h1         0 *         0.063033
    140 H53          7.6350    -1.6390    -4.7100 ho         0 *         0.411500
    141 H62          6.6410     1.6000     2.3960 h1         0 *         0.063033
    142 H68          5.3630     2.7530     2.0680 h1         0 *         0.063033
    143 H54          6.8710     3.8980     0.7690 ho         0 *         0.411500
    144 H63          0.5230     2.9360     2.0830 h1         0 *         0.063033
    145 H69          0.1940     4.2290     3.2540 h1         0 *         0.063033
    146 H55          2.5910     2.7240     3.2410 ho         0 *         0.411500
    147 H64         -2.4560     4.5880    -2.8400 h1         0 *         0.063033
    148 H70         -3.5920     5.6030    -1.9360 h1         0 *         0.063033
    149 H56         -4.7350     4.1820    -3.3060 ho         0 *         0.411500
    150 H65         -3.0680    -0.5400    -3.1360 h1         0 *         0.063033
    151 H71         -2.3710     1.0120    -2.6780 h1         0 *         0.063033
    152 H57         -4.3280     1.9290    -2.7360 ho         0 *         0.411500
    153 H66         -0.8090    -1.9660     0.2930 h1         0 *         0.063033
    154 H72          0.5300    -3.0770     0.1650 h1         0 *         0.063033
    155 H58         -0.7840    -4.6400     1.1450 ho         0 *         0.411500
    156 H59          1.1400    -5.6640     1.6300 ho         0 *         0.438000
    157 H60          4.7340    -7.8700     0.0970 ho         0 *         0.412000
@<TRIPOS>BOND
     1     1     2 1   
     2     1     6 1   
     3     1     6 1   
     4     1    85 1   
     5     2     3 1   
     6     2     3 1   
     7     2    86 1   
     8     3     4 1   
     9     3    84 1   
    10     4     5 1   
    11     4     5 1   
    12     4    87 1   
    13     5     6 1   
    14     5    88 1   
    15     6     7 1   
    16     7     8 1   
    17     8     9 1   
    18     8    89 1   
    19     8    90 1   
    20     9    10 1   
    21     9    14 1   
    22     9    91 1   
    23    10    11 1   
    24    10    65 1   
    25    10    92 1   
    26    11    12 1   
    27    11    83 1   
    28    11    93 1   
    29    12    13 1   
    30    12    82 1   
    31    12    94 1   
    32    13    14 1   
    33    13    15 1   
    34    13    95 1   
    35    15    16 1   
    36    16    17 1   
    37    16    21 1   
    38    16    96 1   
    39    17    18 1   
    40    17    80 1   
    41    17    97 1   
    42    18    19 1   
    43    19    20 1   
    44    19    24 1   
    45    19    98 1   
    46    20    21 1   
    47    20    23 1   
    48    20    99 1   
    49    21    22 1   
    50    21   100 1   
    51    22   101 1   
    52    23   102 1   
    53    24    25 1   
    54    25    26 1   
    55    25    30 1   
    56    25   103 1   
    57    26    27 1   
    58    26    78 1   
    59    26   104 1   
    60    27    28 1   
    61    28    29 1   
    62    28    33 1   
    63    28   105 1   
    64    29    30 1   
    65    29    32 1   
    66    29   106 1   
    67    30    31 1   
    68    30   107 1   
    69    31   108 1   
    70    32   109 1   
    71    33    34 1   
    72    34    35 1   
    73    34    39 1   
    74    34   110 1   
    75    35    36 1   
    76    35    76 1   
    77    35   111 1   
    78    36    37 1   
    79    37    38 1   
    80    37    42 1   
    81    37   112 1   
    82    38    39 1   
    83    38    41 1   
    84    38   113 1   
    85    39    40 1   
    86    39   114 1   
    87    40   115 1   
    88    41   116 1   
    89    42    43 1   
    90    43    44 1   
    91    43    48 1   
    92    43   117 1   
    93    44    45 1   
    94    44    74 1   
    95    44   118 1   
    96    45    46 1   
    97    46    47 1   
    98    46    51 1   
    99    46   119 1   
   100    47    48 1   
   101    47    50 1   
   102    47   120 1   
   103    48    49 1   
   104    48   121 1   
   105    49   122 1   
   106    50   123 1   
   107    51    52 1   
   108    52    53 1   
   109    52    57 1   
   110    52   124 1   
   111    53    54 1   
   112    53    72 1   
   113    53   125 1   
   114    54    55 1   
   115    55    56 1   
   116    55    60 1   
   117    55   126 1   
   118    56    57 1   
   119    56    59 1   
   120    56   127 1   
   121    57    58 1   
   122    57   128 1   
   123    58   129 1   
   124    59   130 1   
   125    60    61 1   
   126    61    62 1   
   127    61    67 1   
   128    61   131 1   
   129    62    63 1   
   130    62    70 1   
   131    62   132 1   
   132    63    64 1   
   133    64    65 1   
   134    64    66 1   
   135    64   133 1   
   136    66    67 1   
   137    66    69 1   
   138    66   134 1   
   139    67    68 1   
   140    67   135 1   
   141    68   136 1   
   142    69   137 1   
   143    70    71 1   
   144    70   138 1   
   145    70   139 1   
   146    71   140 1   
   147    72    73 1   
   148    72   141 1   
   149    72   142 1   
   150    73   143 1   
   151    74    75 1   
   152    74   144 1   
   153    74   145 1   
   154    75   146 1   
   155    76    77 1   
   156    76   147 1   
   157    76   148 1   
   158    77   149 1   
   159    78    79 1   
   160    78   150 1   
   161    78   151 1   
   162    79   152 1   
   163    80    81 1   
   164    80   153 1   
   165    80   154 1   
   166    81   155 1   
   167    82   156 1   
   168    83   157 1   
@<TRIPOS>SUBSTRUCTURE
     1 *           1 TEMP              0 ****  ****    0 ROOT
