@<TRIPOS>MOLECULE
*
   41    49     1     0     0
SMALL
bcc


@<TRIPOS>ATOM
      1 C            6.2950    -6.6500    -0.3010 c3         0 *         0.081600
      2 N            5.3290    -7.7490     0.1380 n4         0 *        -0.680400
      3 C1           5.8060    -9.1330    -0.2910 c3         0 *         0.081600
      4 C2           3.8950    -7.4790    -0.2780 c3         0 *         0.104800
      5 C3           3.2420    -6.2850     0.4180 c3         0 *        -0.119400
      6 C4           1.7930    -6.0550    -0.0370 c3         0 *         0.190800
      7 N1           1.1150    -4.9670     0.6710 n3         0 *        -0.660600
      8 C5           1.6900    -3.6770     0.4670 c3         0 *         0.160200
      9 C6           2.6630    -3.2280     1.3560 c3         0 *        -0.082700
     10 C7           3.3060    -2.0120     1.1240 c3         0 *        -0.083700
     11 C8           2.9690    -1.2470     0.0130 c3         0 *        -0.072700
     12 C9           1.9700    -1.6770    -0.8620 c3         0 *        -0.052700
     13 C10          1.3050    -2.8790    -0.6290 c3         0 *        -0.099900
     14 S           -0.0190    -3.3600    -1.6730 ss         0 *         0.049800
     15 C11         -0.9300    -4.3840    -0.5730 c3         0 *        -0.102900
     16 C12         -0.2960    -5.0400     0.5020 c3         0 *         0.174200
     17 C13         -1.0310    -5.8110     1.3950 c3         0 *        -0.072700
     18 C14         -2.4070    -5.9550     1.2080 c3         0 *         0.019400
     19 C15         -3.0410    -5.3290     0.1340 c3         0 *        -0.068700
     20 C16         -2.3020    -4.5460    -0.7540 c3         0 *        -0.045700
     21 CL          -3.3290    -6.9190     2.3080 cl         0 *        -0.064400
     22 H1           7.3140    -6.8080     0.0350 hx         0 *         0.106700
     23 H2           6.0290    -5.6640     0.0640 hx         0 *         0.106700
     24 H3           6.3670    -6.5420    -1.3770 hx         0 *         0.106700
     25 H            5.3310    -7.7460     1.1550 hn         0 *         0.452800
     26 H4           6.8030    -9.3750     0.0580 hx         0 *         0.106700
     27 H8           5.8440    -9.2630    -1.3660 hx         0 *         0.106700
     28 H12          5.1780    -9.9400     0.0690 hx         0 *         0.106700
     29 H5           3.8140    -7.3300    -1.3500 hx         0 *         0.105200
     30 H9           3.2640    -8.3430    -0.0990 hx         0 *         0.105200
     31 H6           3.8200    -5.3900     0.1940 hc         0 *         0.076700
     32 H10          3.2420    -6.4490     1.4950 hc         0 *         0.076700
     33 H7           1.2310    -6.9710     0.0990 h1         0 *         0.055200
     34 H11          1.7670    -5.8590    -1.1020 h1         0 *         0.055200
     35 H13          2.9090    -3.8110     2.2050 hc         0 *         0.092700
     36 H14          4.0490    -1.6680     1.7980 hc         0 *         0.102700
     37 H15          3.4640    -0.3250    -0.1640 hc         0 *         0.110700
     38 H16          1.6990    -1.0840    -1.6970 hc         0 *         0.116700
     39 H17         -0.5540    -6.2870     2.2110 hc         0 *         0.112700
     40 H18         -4.0860    -5.4500     0.0020 hc         0 *         0.124700
     41 H19         -2.7810    -4.0620    -1.5670 hc         0 *         0.119700
@<TRIPOS>BOND
     1     1     2 1   
     2     1    22 1   
     3     1    23 1   
     4     1    24 1   
     5     2     3 1   
     6     2     4 1   
     7     2    25 1   
     8     3    26 1   
     9     3    27 1   
    10     3    28 1   
    11     4     5 1   
    12     4    29 1   
    13     4    30 1   
    14     5     6 1   
    15     5    31 1   
    16     5    32 1   
    17     6     7 1   
    18     6    33 1   
    19     6    34 1   
    20     7     8 1   
    21     7    16 1   
    22     8     9 1   
    23     8    13 1   
    24     8    13 1   
    25     9    10 1   
    26     9    10 1   
    27     9    35 1   
    28    10    11 1   
    29    10    36 1   
    30    11    12 1   
    31    11    12 1   
    32    11    37 1   
    33    12    13 1   
    34    12    38 1   
    35    13    14 1   
    36    14    15 1   
    37    15    16 1   
    38    15    20 1   
    39    15    20 1   
    40    16    17 1   
    41    16    17 1   
    42    17    18 1   
    43    17    39 1   
    44    18    19 1   
    45    18    19 1   
    46    18    21 1   
    47    19    20 1   
    48    19    40 1   
    49    20    41 1   
@<TRIPOS>SUBSTRUCTURE
     1 *           1 TEMP              0 ****  ****    0 ROOT
