@<TRIPOS>MOLECULE
*
   29    30     1     0     0
SMALL
bcc


@<TRIPOS>ATOM
      1 C            4.4720    -2.3310     1.4210 c3         0 *        -0.082100
      2 C1           3.8730    -1.2230     0.5120 c3         0 *        -0.053000
      3 C2           4.5080     0.0790     1.0670 c3         0 *        -0.082100
      4 C3           4.0680    -1.4480    -1.0020 c3         0 *        -0.067700
      5 C4           3.3070    -0.2820    -1.6640 c3         0 *        -0.083400
      6 C5           2.1060    -0.1070    -0.7200 c3         0 *        -0.079400
      7 C6           2.3320    -1.2280     0.3270 c3         0 *        -0.083000
      8 C7           1.4900    -1.0150     1.5950 c3         0 *        -0.071100
      9 C8           2.0770    -2.6060    -0.3450 c3         0 *         0.143100
     10 O            0.8520    -2.7060    -1.0420 oh         0 *        -0.590800
     11 C9           3.2700    -2.7330    -1.3030 c3         0 *        -0.113400
     12 H1           5.5590    -2.3220     1.3420 hc         0 *         0.035867
     13 H2           4.1340    -3.3310     1.1630 hc         0 *         0.035867
     14 H3           4.1960    -2.1460     2.4600 hc         0 *         0.035867
     15 H4           4.2340     0.2080     2.1150 hc         0 *         0.035867
     16 H9           4.1940     0.9720     0.5320 hc         0 *         0.035867
     17 H14          5.5940     0.0200     0.9960 hc         0 *         0.035867
     18 H            5.1120    -1.5100    -1.3140 hc         0 *         0.068700
     19 H5           3.9200     0.6210    -1.6840 hc         0 *         0.043200
     20 H10          2.9910    -0.5260    -2.6800 hc         0 *         0.043200
     21 H6           1.1580    -0.2090    -1.2460 hc         0 *         0.045200
     22 H11          2.1310     0.8770    -0.2480 hc         0 *         0.045200
     23 H7           1.7240    -0.0500     2.0440 hc         0 *         0.039700
     24 H12          1.6960    -1.8050     2.3160 hc         0 *         0.039700
     25 H15          0.4300    -1.0410     1.3370 hc         0 *         0.039700
     26 H16          2.1170    -3.3980     0.4040 h1         0 *         0.078700
     27 H17          0.8170    -1.9780    -1.6650 ho         0 *         0.398000
     28 H8           3.8550    -3.6200    -1.0610 hc         0 *         0.050700
     29 H13          2.9560    -2.7840    -2.3470 hc         0 *         0.050700
@<TRIPOS>BOND
     1     1     2 1   
     2     1    12 1   
     3     1    13 1   
     4     1    14 1   
     5     2     3 1   
     6     2     4 1   
     7     2     7 1   
     8     3    15 1   
     9     3    16 1   
    10     3    17 1   
    11     4     5 1   
    12     4    11 1   
    13     4    18 1   
    14     5     6 1   
    15     5    19 1   
    16     5    20 1   
    17     6     7 1   
    18     6    21 1   
    19     6    22 1   
    20     7     8 1   
    21     7     9 1   
    22     8    23 1   
    23     8    24 1   
    24     8    25 1   
    25     9    10 1   
    26     9    11 1   
    27     9    26 1   
    28    10    27 1   
    29    11    28 1   
    30    11    29 1   
@<TRIPOS>SUBSTRUCTURE
     1 *           1 TEMP              0 ****  ****    0 ROOT
