@<TRIPOS>MOLECULE
*
  147   154     1     0     0
SMALL
bcc


@<TRIPOS>ATOM
      1 C            0.0860    -1.8390    -1.5190 c3         0 *         0.115686
      2 C1           0.1370    -3.1130    -0.6540 c3         0 *         0.096957
      3 C2          -1.1080    -3.2020     0.2630 c3         0 *         0.106386
      4 C3          -0.8570    -4.2910     1.3330 c3         0 *         0.111671
      5 C4           0.3590    -3.9180     2.2230 c3         0 *         0.126243
      6 C5           1.3050    -2.8970     1.5260 c3         0 *         0.293329
      7 O            1.4150    -3.1850     0.1130 os         0 *        -0.438886
      8 O1           2.6560    -2.9000     2.1210 os         0 *        -0.432600
      9 C6           3.5750    -1.7400     1.8510 c3         0 *         0.106386
     10 C7           2.9230    -0.3400     2.0510 c3         0 *         0.096957
     11 O2           3.8710     0.7460     1.7210 os         0 *        -0.438886
     12 C8           4.7530     0.5930     0.5530 c3         0 *         0.293329
     13 C9           4.3770    -0.6170    -0.3380 c3         0 *         0.126243
     14 C10          4.2940    -1.9160     0.4850 c3         0 *         0.111671
     15 O3           5.6030    -2.4620     0.6720 oh         0 *        -0.596943
     16 O4           3.1570    -0.3870    -1.0650 oh         0 *        -0.591086
     17 O5           4.6810     1.8260    -0.2340 os         0 *        -0.432600
     18 C11          4.6330     3.1270     0.4920 c3         0 *         0.106386
     19 C12          3.1930     3.8270     0.6040 c3         0 *         0.096957
     20 O6           2.7380     5.0080     1.1970 os         0 *        -0.438886
     21 C13          3.6570     6.1540     0.6800 c3         0 *         0.293329
     22 C14          4.7060     5.6840    -0.5010 c3         0 *         0.126243
     23 C15          5.4270     4.2450    -0.3930 c3         0 *         0.111671
     24 O7           6.7620     4.3980     0.0910 oh         0 *        -0.596943
     25 O8           4.0560     5.7450    -1.7820 oh         0 *        -0.591086
     26 O9           2.7840     7.2340     0.1980 os         0 *        -0.432600
     27 C16          1.5270     7.4760     0.9650 c3         0 *         0.106386
     28 C17          0.2010     6.7610     0.4190 c3         0 *         0.096957
     29 O10         -1.0970     6.6370     0.9070 os         0 *        -0.438886
     30 C18         -1.5760     8.0500     1.2760 c3         0 *         0.293329
     31 C19         -0.5650     9.2480     0.7510 c3         0 *         0.126243
     32 C20          1.0370     9.0180     0.8010 c3         0 *         0.111671
     33 O11          1.6270     9.8320     1.8150 oh         0 *        -0.596943
     34 O12         -0.9090     9.6180    -0.5950 oh         0 *        -0.591086
     35 O13         -2.9180     8.1950     0.7160 os         0 *        -0.432600
     36 C21         -4.0670     7.5300     1.4190 c3         0 *         0.106386
     37 C22         -3.9610     5.9760     1.4100 c3         0 *         0.096957
     38 O14         -5.2680     5.3250     1.2040 os         0 *        -0.438886
     39 C23         -6.3920     5.9180     1.8900 c3         0 *         0.293329
     40 C24         -6.6530     7.3640     1.3740 c3         0 *         0.126243
     41 C25         -5.3810     7.9830     0.7380 c3         0 *         0.111671
     42 O15         -5.4570     9.4140     0.7440 oh         0 *        -0.596943
     43 O16         -7.7330     7.4080     0.4220 oh         0 *        -0.591086
     44 O17         -7.5920     5.0380     1.7700 os         0 *        -0.432600
     45 C26         -7.5710     3.7490     0.9800 c3         0 *         0.106386
     46 C27         -6.6450     2.6710     1.6040 c3         0 *         0.096957
     47 O18         -6.2660     1.6300     0.6250 os         0 *        -0.438886
     48 C28         -7.2330     1.3500    -0.4280 c3         0 *         0.293329
     49 C29         -7.4720     2.6130    -1.3190 c3         0 *         0.126243
     50 C30         -7.2660     3.9340    -0.5300 c3         0 *         0.111671
     51 O19         -8.0620     4.9720    -1.1100 oh         0 *        -0.596943
     52 O20         -6.6210     2.6470    -2.4810 oh         0 *        -0.591086
     53 O21         -6.7520     0.1870    -1.1950 os         0 *        -0.432600
     54 C31         -5.9920    -0.8570    -0.4470 c3         0 *         0.106386
     55 C32         -4.3980    -0.7240    -0.4690 c3         0 *         0.096957
     56 O22         -3.3510    -1.3940     0.1650 os         0 *        -0.438886
     57 C33         -3.5830    -2.9050    -0.0640 c3         0 *         0.293329
     58 O23         -2.3210    -3.4650    -0.5500 os         0 *        -0.432600
     59 C34         -4.8210    -3.2570    -1.1060 c3         0 *         0.126243
     60 C35         -6.1100    -2.2860    -1.2050 c3         0 *         0.111671
     61 O24         -7.2930    -2.9700    -0.7860 oh         0 *        -0.596943
     62 O25         -4.3050    -3.4160    -2.4380 oh         0 *        -0.591086
     63 C36         -4.1650     0.3760    -1.5360 c3         0 *         0.115686
     64 O26         -2.7760     0.4520    -1.8570 oh         0 *        -0.605800
     65 C37         -7.2730     2.0310     2.8520 c3         0 *         0.115686
     66 O27         -6.3920     1.0530     3.4040 oh         0 *        -0.605800
     67 C38         -3.3110     5.4150     2.6940 c3         0 *         0.115686
     68 O28         -3.0850     4.0110     2.5790 oh         0 *        -0.605800
     69 C39          0.6090     6.2320    -0.9790 c3         0 *         0.115686
     70 O29          0.7470     7.2640    -1.9600 oh         0 *        -0.605800
     71 C40          2.2650     2.9150    -0.2400 c3         0 *         0.115686
     72 O30          2.4770     3.0260    -1.6530 oh         0 *        -0.605800
     73 C41          2.4320    -0.1000     3.4950 c3         0 *         0.115686
     74 O31          1.4110    -0.9930     3.9400 oh         0 *        -0.605800
     75 O32          1.0530    -5.1170     2.6070 oh         0 *        -0.591086
     76 O33         -2.0100    -4.5300     2.1490 oh         0 *        -0.596943
     77 O34          0.3410    -0.6580    -0.7570 oh         0 *        -0.605800
     78 H1          -0.8940    -1.7720    -1.9970 h1         0 *         0.060271
     79 H2           0.8360    -1.9270    -2.3080 h1         0 *         0.060271
     80 H            0.1310    -3.9770    -1.3210 h1         0 *         0.099414
     81 H15         -1.2330    -2.2450     0.7720 h1         0 *         0.085271
     82 H16         -0.6170    -5.2120     0.7950 h1         0 *         0.085129
     83 H17         -0.0000    -3.4200     3.1260 h1         0 *         0.079557
     84 H18          0.8700    -1.9100     1.6260 h2         0 *         0.078129
     85 H19          4.3470    -1.8130     2.6190 h1         0 *         0.085271
     86 H20          2.0790    -0.2250     1.3720 h1         0 *         0.099414
     87 H21          5.7660     0.4710     0.9170 h2         0 *         0.078129
     88 H22          5.1810    -0.7270    -1.0680 h1         0 *         0.079557
     89 H23          3.7330    -2.6300    -0.1180 h1         0 *         0.085129
     90 H24          5.5050    -3.3590     1.0340 ho         0 *         0.417000
     91 H25          3.2610     0.4750    -1.5100 ho         0 *         0.427286
     92 H26          5.1870     2.9090     1.4420 h1         0 *         0.085271
     93 H27          4.0970     4.0760     1.0620 h1         0 *         0.099414
     94 H28          4.2250     6.5180     1.5290 h2         0 *         0.078129
     95 H29          5.4890     6.4450    -0.5110 h1         0 *         0.079557
     96 H30          5.4920     3.8520    -1.4110 h1         0 *         0.085129
     97 H31          7.2330     3.5600    -0.0570 ho         0 *         0.417000
     98 H32          3.5370     6.5700    -1.7990 ho         0 *         0.427286
     99 H33          1.8610     7.2890     2.0240 h1         0 *         0.085271
    100 H34          0.3900     7.2100     1.3440 h1         0 *         0.099414
    101 H35         -1.6340     8.1050     2.3580 h2         0 *         0.078129
    102 H36         -0.7940    10.1100     1.3810 h1         0 *         0.079557
    103 H37          1.4280     9.3620    -0.1590 h1         0 *         0.085129
    104 H38          2.5910     9.8160     1.6870 ho         0 *         0.417000
    105 H39         -1.8800     9.5830    -0.6570 ho         0 *         0.427286
    106 H40         -4.0780     7.8890     2.4510 h1         0 *         0.085271
    107 H41         -3.3580     5.6810     0.5510 h1         0 *         0.099414
    108 H42         -6.1310     5.9700     2.9400 h2         0 *         0.078129
    109 H43         -6.9310     7.9560     2.2490 h1         0 *         0.079557
    110 H44         -5.3320     7.6390    -0.2980 h1         0 *         0.085129
    111 H45         -4.6220     9.7410     0.3680 ho         0 *         0.417000
    112 H46         -8.5410     7.1340     0.8900 ho         0 *         0.427286
    113 H47         -8.5940     3.3720     1.0390 h1         0 *         0.085271
    114 H48         -5.7100     3.1290     1.9120 h1         0 *         0.099414
    115 H49         -8.1630     1.0740     0.0550 h2         0 *         0.078129
    116 H50         -8.5110     2.5540    -1.6490 h1         0 *         0.079557
    117 H51         -6.2140     4.2030    -0.6320 h1         0 *         0.085129
    118 H52         -7.8730     5.7980    -0.6250 ho         0 *         0.417000
    119 H53         -6.8750     3.4270    -3.0040 ho         0 *         0.427286
    120 H54         -6.5300    -0.8940     0.5390 h1         0 *         0.085271
    121 H55         -5.0070    -1.3160     0.1470 h1         0 *         0.099414
    122 H56         -3.8180    -3.3400     0.9010 h2         0 *         0.078129
    123 H57         -5.1750    -4.2400    -0.7900 h1         0 *         0.079557
    124 H58         -6.2330    -2.0500    -2.2650 h1         0 *         0.085129
    125 H59         -8.0570    -2.4260    -1.0440 ho         0 *         0.417000
    126 H60         -3.4100    -3.7920    -2.3460 ho         0 *         0.427286
    127 H3          -4.4900     1.3410    -1.1440 h1         0 *         0.060271
    128 H9          -4.7170     0.1480    -2.4510 h1         0 *         0.060271
    129 H61         -2.2740     0.2320    -1.0520 ho         0 *         0.422857
    130 H4          -8.2200     1.5600     2.5770 h1         0 *         0.060271
    131 H10         -7.4760     2.8090     3.5920 h1         0 *         0.060271
    132 H62         -6.0660     0.5080     2.6670 ho         0 *         0.422857
    133 H5          -3.9690     5.6100     3.5440 h1         0 *         0.060271
    134 H11         -2.3630     5.9160     2.8910 h1         0 *         0.060271
    135 H63         -3.8800     3.6160     2.1860 ho         0 *         0.422857
    136 H6          -0.1920     5.5660    -1.3060 h1         0 *         0.060271
    137 H12          1.4990     5.6120    -0.9330 h1         0 *         0.060271
    138 H64         -0.0630     7.8060    -1.9530 ho         0 *         0.422857
    139 H7           1.2430     3.2360    -0.0310 h1         0 *         0.060271
    140 H13          2.3130     1.8800     0.0920 h1         0 *         0.060271
    141 H65          2.6520     3.9580    -1.8750 ho         0 *         0.422857
    142 H8           2.0470     0.9210     3.5460 h1         0 *         0.060271
    143 H14          3.2890    -0.1560     4.1700 h1         0 *         0.060271
    144 H66          1.8340    -1.8310     4.1960 ho         0 *         0.422857
    145 H67          1.9530    -4.8470     2.8660 ho         0 *         0.427286
    146 H68         -1.8100    -5.2870     2.7270 ho         0 *         0.417000
    147 H69          1.3080    -0.5120    -0.7880 ho         0 *         0.422857
@<TRIPOS>BOND
     1     1     2 1   
     2     1    77 1   
     3     1    78 1   
     4     1    79 1   
     5     2     3 1   
     6     2     7 1   
     7     2    80 1   
     8     3     4 1   
     9     3    58 1   
    10     3    81 1   
    11     4     5 1   
    12     4    76 1   
    13     4    82 1   
    14     5     6 1   
    15     5    75 1   
    16     5    83 1   
    17     6     7 1   
    18     6     8 1   
    19     6    84 1   
    20     8     9 1   
    21     9    10 1   
    22     9    14 1   
    23     9    85 1   
    24    10    11 1   
    25    10    73 1   
    26    10    86 1   
    27    11    12 1   
    28    12    13 1   
    29    12    17 1   
    30    12    87 1   
    31    13    14 1   
    32    13    16 1   
    33    13    88 1   
    34    14    15 1   
    35    14    89 1   
    36    15    90 1   
    37    16    91 1   
    38    17    18 1   
    39    18    19 1   
    40    18    23 1   
    41    18    92 1   
    42    19    20 1   
    43    19    71 1   
    44    19    93 1   
    45    20    21 1   
    46    21    22 1   
    47    21    26 1   
    48    21    94 1   
    49    22    23 1   
    50    22    25 1   
    51    22    95 1   
    52    23    24 1   
    53    23    96 1   
    54    24    97 1   
    55    25    98 1   
    56    26    27 1   
    57    27    28 1   
    58    27    32 1   
    59    27    99 1   
    60    28    29 1   
    61    28    69 1   
    62    28   100 1   
    63    29    30 1   
    64    30    31 1   
    65    30    35 1   
    66    30   101 1   
    67    31    32 1   
    68    31    34 1   
    69    31   102 1   
    70    32    33 1   
    71    32   103 1   
    72    33   104 1   
    73    34   105 1   
    74    35    36 1   
    75    36    37 1   
    76    36    41 1   
    77    36   106 1   
    78    37    38 1   
    79    37    67 1   
    80    37   107 1   
    81    38    39 1   
    82    39    40 1   
    83    39    44 1   
    84    39   108 1   
    85    40    41 1   
    86    40    43 1   
    87    40   109 1   
    88    41    42 1   
    89    41   110 1   
    90    42   111 1   
    91    43   112 1   
    92    44    45 1   
    93    45    46 1   
    94    45    50 1   
    95    45   113 1   
    96    46    47 1   
    97    46    65 1   
    98    46   114 1   
    99    47    48 1   
   100    48    49 1   
   101    48    53 1   
   102    48   115 1   
   103    49    50 1   
   104    49    52 1   
   105    49   116 1   
   106    50    51 1   
   107    50   117 1   
   108    51   118 1   
   109    52   119 1   
   110    53    54 1   
   111    54    55 1   
   112    54    60 1   
   113    54   120 1   
   114    55    56 1   
   115    55    63 1   
   116    55   121 1   
   117    56    57 1   
   118    57    58 1   
   119    57    59 1   
   120    57   122 1   
   121    59    60 1   
   122    59    62 1   
   123    59   123 1   
   124    60    61 1   
   125    60   124 1   
   126    61   125 1   
   127    62   126 1   
   128    63    64 1   
   129    63   127 1   
   130    63   128 1   
   131    64   129 1   
   132    65    66 1   
   133    65   130 1   
   134    65   131 1   
   135    66   132 1   
   136    67    68 1   
   137    67   133 1   
   138    67   134 1   
   139    68   135 1   
   140    69    70 1   
   141    69   136 1   
   142    69   137 1   
   143    70   138 1   
   144    71    72 1   
   145    71   139 1   
   146    71   140 1   
   147    72   141 1   
   148    73    74 1   
   149    73   142 1   
   150    73   143 1   
   151    74   144 1   
   152    75   145 1   
   153    76   146 1   
   154    77   147 1   
@<TRIPOS>SUBSTRUCTURE
     1 *           1 TEMP              0 ****  ****    0 ROOT
