@<TRIPOS>MOLECULE
*
   25    25     1     0     0
SMALL
bcc


@<TRIPOS>ATOM
      1 C           -3.5880     1.4400     0.4630 c3         0 *        -0.075400
      2 C1          -3.1870     0.0810    -0.1320 c3         0 *        -0.076400
      3 C2          -1.7340    -0.3520     0.1130 c3         0 *        -0.071900
      4 C3          -0.6600     0.5480    -0.5190 c3         0 *        -0.107900
      5 C4          -0.2820     1.7690     0.3440 c3         0 *         0.140100
      6 C5          -0.7130     3.1220    -0.2390 c3         0 *        -0.107900
      7 C6          -2.1450     3.5610     0.1060 c3         0 *        -0.071900
      8 C7          -3.2640     2.6550    -0.4280 c3         0 *        -0.076400
      9 O            1.1230     1.8010     0.4520 oh         0 *        -0.602800
     10 H1          -3.1530     1.5540     1.4570 hc         0 *         0.039200
     11 H2          -4.6710     1.4200     0.5970 hc         0 *         0.039200
     12 H3          -3.3970     0.0700    -1.2030 hc         0 *         0.038450
     13 H9          -3.8260    -0.6780     0.3230 hc         0 *         0.038450
     14 H4          -1.6200    -1.3510    -0.3130 hc         0 *         0.040950
     15 H10         -1.5530    -0.4430     1.1860 hc         0 *         0.040950
     16 H5          -0.9840     0.8610    -1.5120 hc         0 *         0.045950
     17 H11          0.2290    -0.0710    -0.6530 hc         0 *         0.045950
     18 H           -0.6920     1.6620     1.3510 h1         0 *         0.077700
     19 H6          -0.0460     3.8900     0.1580 hc         0 *         0.045950
     20 H12         -0.5890     3.1140    -1.3220 hc         0 *         0.045950
     21 H7          -2.2420     3.6700     1.1880 hc         0 *         0.040950
     22 H13         -2.2890     4.5530    -0.3260 hc         0 *         0.040950
     23 H8          -4.1680     3.2640    -0.4810 hc         0 *         0.038450
     24 H14         -3.0370     2.3430    -1.4490 hc         0 *         0.038450
     25 H15          1.4900     1.9110    -0.4280 ho         0 *         0.393000
@<TRIPOS>BOND
     1     1     2 1   
     2     1     8 1   
     3     1    10 1   
     4     1    11 1   
     5     2     3 1   
     6     2    12 1   
     7     2    13 1   
     8     3     4 1   
     9     3    14 1   
    10     3    15 1   
    11     4     5 1   
    12     4    16 1   
    13     4    17 1   
    14     5     6 1   
    15     5     9 1   
    16     5    18 1   
    17     6     7 1   
    18     6    19 1   
    19     6    20 1   
    20     7     8 1   
    21     7    21 1   
    22     7    22 1   
    23     8    23 1   
    24     8    24 1   
    25     9    25 1   
@<TRIPOS>SUBSTRUCTURE
     1 *           1 TEMP              0 ****  ****    0 ROOT
