@<TRIPOS>MOLECULE
*
   32    40     1     0     0
SMALL
bcc


@<TRIPOS>ATOM
      1 C            3.4350     1.3630    -0.0420 c3         0 *         0.075800
      2 C1           2.1790     1.9510     0.6230 c3         0 *         0.180800
      3 N            1.1770     2.3520    -0.3630 n3         0 *        -0.674600
      4 C2           0.9920     3.7630    -0.4390 c3         0 *         0.163200
      5 C3           1.8790     4.5100    -1.2080 c3         0 *        -0.084700
      6 C4           1.7730     5.9010    -1.2320 c3         0 *        -0.074700
      7 C5           0.7810     6.5380    -0.4940 c3         0 *        -0.067700
      8 C6          -0.1230     5.7900     0.2620 c3         0 *        -0.050700
      9 C7          -0.0360     4.4000     0.2840 c3         0 *        -0.095900
     10 S           -1.2110     3.4760     1.2010 ss         0 *         0.063800
     11 C8          -1.1320     1.9230     0.3900 c3         0 *        -0.095900
     12 C9          -2.2180     1.0530     0.4650 c3         0 *        -0.050700
     13 C10         -2.1850    -0.1700    -0.2060 c3         0 *        -0.067700
     14 C11         -1.0700    -0.5300    -0.9550 c3         0 *        -0.074700
     15 C12          0.0300     0.3260    -1.0270 c3         0 *        -0.084700
     16 C13          0.0080     1.5380    -0.3430 c3         0 *         0.163200
     17 N1           4.5420     0.9040     0.8430 n4         0 *        -0.836600
     18 H            3.8280     2.1160    -0.7310 hx         0 *         0.118700
     19 H1           3.1160     0.5230    -0.6650 hx         0 *         0.118700
     20 H13          2.4570     2.7990     1.2380 h1         0 *         0.066700
     21 H2           1.7580     1.2270     1.3090 h1         0 *         0.066700
     22 H3           2.6260     4.0260    -1.7790 hc         0 *         0.085700
     23 H4           2.4460     6.4760    -1.8170 hc         0 *         0.108700
     24 H5           0.7060     7.5960    -0.5130 hc         0 *         0.115700
     25 H6          -0.8860     6.2750     0.8140 hc         0 *         0.119700
     26 H7          -3.0730     1.3320     1.0250 hc         0 *         0.119700
     27 H8          -3.0180    -0.8250    -0.1520 hc         0 *         0.115700
     28 H9          -1.0600    -1.4540    -1.4750 hc         0 *         0.108700
     29 H10          0.8720     0.0580    -1.6070 hc         0 *         0.085700
     30 H11          5.3050     0.5400     0.2860 hn         0 *         0.460467
     31 H12          4.2230     0.1690     1.4620 hn         0 *         0.460467
     32 H14          4.8950     1.6720     1.4010 hn         0 *         0.460467
@<TRIPOS>BOND
     1     1     2 1   
     2     1    17 1   
     3     1    18 1   
     4     1    19 1   
     5     2     3 1   
     6     2    20 1   
     7     2    21 1   
     8     3     4 1   
     9     3    16 1   
    10     4     5 1   
    11     4     9 1   
    12     4     9 1   
    13     5     6 1   
    14     5     6 1   
    15     5    22 1   
    16     6     7 1   
    17     6    23 1   
    18     7     8 1   
    19     7     8 1   
    20     7    24 1   
    21     8     9 1   
    22     8    25 1   
    23     9    10 1   
    24    10    11 1   
    25    11    12 1   
    26    11    16 1   
    27    11    16 1   
    28    12    13 1   
    29    12    13 1   
    30    12    26 1   
    31    13    14 1   
    32    13    27 1   
    33    14    15 1   
    34    14    15 1   
    35    14    28 1   
    36    15    16 1   
    37    15    29 1   
    38    17    30 1   
    39    17    31 1   
    40    17    32 1   
@<TRIPOS>SUBSTRUCTURE
     1 *           1 TEMP              0 ****  ****    0 ROOT
