@<TRIPOS>MOLECULE
*
  189   196     1     0     0
SMALL
bcc


@<TRIPOS>ATOM
      1 C           -2.0610     0.9370     1.7250 c3         0 *         0.117114
      2 C3          -1.4080    -0.0380     0.7260 c3         0 *         0.127243
      3 C4          -2.2590    -1.3200     0.5170 c3         0 *         0.091529
      4 C5          -1.6380    -2.5940     1.1640 c3         0 *         0.127529
      5 C6          -0.9340    -2.2160     2.4820 c3         0 *         0.092386
      6 C7           0.2570    -1.2410     2.2150 c3         0 *         0.307186
      7 O            0.0020    -0.3290     1.0960 os         0 *        -0.435886
      8 O1           1.4980    -1.9650     1.8770 os         0 *        -0.410457
      9 C8           2.8700    -1.3960     2.2350 c3         0 *         0.091529
     10 C9           2.9200     0.1430     2.4990 c3         0 *         0.127243
     11 O2           4.1260     0.7930     1.9210 os         0 *        -0.435886
     12 C10          4.4690     0.5480     0.5140 c3         0 *         0.307186
     13 C11          3.9120    -0.8060    -0.0220 c3         0 *         0.092386
     14 C12          3.8930    -1.8160     1.1470 c3         0 *         0.127529
     15 O3           3.6300    -3.1420     0.6750 oh         0 *        -0.584800
     16 O4           2.5940    -0.7000    -0.6120 os         0 *        -0.399600
     17 C13          2.5940    -0.4110    -2.0130 c3         0 *         0.105843
     18 O5           4.0470     1.7130    -0.2630 os         0 *        -0.410457
     19 C14          4.5370     3.0570     0.1810 c3         0 *         0.091529
     20 C15          3.4170     4.0580     0.7640 c3         0 *         0.127243
     21 O6           3.5060     5.3470     1.3060 os         0 *        -0.435886
     22 C16          4.1860     6.2640     0.2130 c3         0 *         0.307186
     23 C17          5.3150     5.4750    -0.7080 c3         0 *         0.092386
     24 C18          5.0290     3.9350    -1.1160 c3         0 *         0.127529
     25 O7           4.0630     3.8080    -2.1680 oh         0 *        -0.584800
     26 O8           5.9420     6.3000    -1.7220 os         0 *        -0.399600
     27 C19          5.2120     6.5470    -2.9280 c3         0 *         0.105843
     28 O9           3.1060     6.8600    -0.5970 os         0 *        -0.410457
     29 C20          1.8130     7.2280     0.0900 c3         0 *         0.091529
     30 C21          0.4930     6.5420    -0.5140 c3         0 *         0.127243
     31 O10         -0.8290     6.4330    -0.0550 os         0 *        -0.435886
     32 C22         -1.2490     7.8260     0.4690 c3         0 *         0.307186
     33 C23         -0.2310     9.0660     0.0250 c3         0 *         0.092386
     34 C24          1.3680     8.7770    -0.1290 c3         0 *         0.127529
     35 O11          1.9250     9.2710    -1.3530 oh         0 *        -0.584800
     36 O12         -0.8010     9.8950    -1.0240 os         0 *        -0.399600
     37 C25         -1.0370     9.2850    -2.2980 c3         0 *         0.105843
     38 O13         -2.6550     8.0320     0.1050 os         0 *        -0.410457
     39 C26         -3.6030     6.9190     0.4250 c3         0 *         0.091529
     40 C27         -5.0240     7.1830    -0.1320 c3         0 *         0.127243
     41 O14         -5.9030     5.9870     0.0940 os         0 *        -0.435886
     42 C28         -5.5800     5.1320     1.2390 c3         0 *         0.307186
     43 C29         -4.9810     5.9650     2.4080 c3         0 *         0.092386
     44 C30         -3.6290     6.5650     1.9470 c3         0 *         0.127529
     45 O15         -3.3000     7.6720     2.7970 oh         0 *        -0.584800
     46 O16         -5.8380     7.0550     2.8450 os         0 *        -0.399600
     47 C31         -6.9560     6.6730     3.6480 c3         0 *         0.105843
     48 O17         -6.7890     4.3920     1.6150 os         0 *        -0.410457
     49 C32         -7.0630     3.0450     0.9990 c3         0 *         0.091529
     50 C33         -5.9690     1.9920     1.3440 c3         0 *         0.127243
     51 O18         -6.1190     0.7740     0.5110 os         0 *        -0.435886
     52 C34         -6.2070     0.9610    -0.9440 c3         0 *         0.307186
     53 C35         -6.2900     2.4600    -1.3780 c3         0 *         0.092386
     54 C36         -7.4020     3.1020    -0.5220 c3         0 *         0.127529
     55 O19         -7.7720     4.4000    -0.9920 oh         0 *        -0.584800
     56 O20         -5.0580     3.2040    -1.2100 os         0 *        -0.399600
     57 C37         -4.1320     3.0900    -2.2920 c3         0 *         0.105843
     58 O21         -5.1220     0.2040    -1.5560 os         0 *        -0.410457
     59 C38         -5.5180    -1.0760    -2.2220 c3         0 *         0.091529
     60 C39         -5.7900    -2.1770    -1.1630 c3         0 *         0.127243
     61 O22         -4.5420    -2.7260    -0.5690 os         0 *        -0.435886
     62 C40         -3.3050    -2.6670    -1.3590 c3         0 *         0.307186
     63 O23         -2.5550    -1.4820    -0.9350 os         0 *        -0.410457
     64 C41         -3.5750    -2.6780    -2.8850 c3         0 *         0.092386
     65 C42         -4.5010    -1.5120    -3.3180 c3         0 *         0.127529
     66 O24         -3.7280    -0.4050    -3.8050 oh         0 *        -0.584800
     67 O25         -2.3460    -2.7180    -3.6460 os         0 *        -0.399600
     68 C43         -2.4980    -3.2320    -4.9710 c3         0 *         0.105843
     69 C44         -6.6830    -3.3120    -1.6960 c3         0 *         0.117114
     70 O26         -7.9220    -2.7890    -2.1800 os         0 *        -0.429171
     71 C45         -8.7910    -3.8120    -2.6610 c3         0 *         0.110129
     72 C46         -5.9880     1.6340     2.8400 c3         0 *         0.117114
     73 O27         -4.8710     0.8040     3.1730 os         0 *        -0.429171
     74 C2          -4.8580     0.4410     4.5510 c3         0 *         0.110129
     75 C47         -4.9880     7.5380    -1.6380 c3         0 *         0.117114
     76 O28         -6.1440     8.2490    -2.1140 os         0 *        -0.429171
     77 C1          -7.3310     7.4620    -2.2100 c3         0 *         0.110129
     78 C48          0.9490     6.0360    -1.9080 c3         0 *         0.117114
     79 O29          1.1370     7.0920    -2.8540 os         0 *        -0.429171
     80 C49          1.4790     6.5920    -4.1440 c3         0 *         0.110129
     81 C50          2.0810     3.3160     0.5170 c3         0 *         0.117114
     82 O30          1.7220     3.2600    -0.8670 os         0 *        -0.429171
     83 C51          0.5190     2.5280    -1.0770 c3         0 *         0.110129
     84 C52          2.9150     0.4680     4.0060 c3         0 *         0.117114
     85 O31          1.8670    -0.1760     4.7320 os         0 *        -0.429171
     86 C53          1.8880     0.1520     6.1190 c3         0 *         0.110129
     87 O32         -0.5630    -3.4170     3.1930 os         0 *        -0.399600
     88 C54         -0.1140    -3.1860     4.5310 c3         0 *         0.105843
     89 O33         -0.7450    -3.3050     0.2930 oh         0 *        -0.584800
     90 O34         -1.2580     2.1060     1.9130 os         0 *        -0.429171
     91 C55         -1.8210     2.9870     2.8820 c3         0 *         0.110129
     92 H1          -2.2090     0.4310     2.6800 h1         0 *         0.051271
     93 H2          -3.0380     1.2200     1.3290 h1         0 *         0.051271
     94 H           -1.3640     0.4830    -0.2310 h1         0 *         0.090414
     95 H46         -3.2270    -1.1530     0.9970 h1         0 *         0.072700
     96 H47         -2.4650    -3.2630     1.4160 h1         0 *         0.081414
     97 H48         -1.6630    -1.6720     3.0850 h1         0 *         0.065129
     98 H49          0.4030    -0.6490     3.1050 h2         0 *         0.085557
     99 H50          3.1690    -1.9040     3.1540 h1         0 *         0.072700
    100 H51          2.0640     0.6200     2.0350 h1         0 *         0.090414
    101 H52          5.5520     0.4970     0.4710 h2         0 *         0.085557
    102 H53          4.6220    -1.1680    -0.7680 h1         0 *         0.065129
    103 H54          4.8870    -1.8050     1.6030 h1         0 *         0.081414
    104 H55          2.6720    -3.1700     0.5050 ho         0 *         0.435429
    105 H4           1.5660    -0.3620    -2.3750 h1         0 *         0.044176
    106 H28          3.1140    -1.1960    -2.5680 h1         0 *         0.044176
    107 H3           3.0730     0.5480    -2.2220 h1         0 *         0.044176
    108 H56          5.4160     2.8070     0.8340 h1         0 *         0.072700
    109 H57          4.4380     4.1170     0.7660 h1         0 *         0.090414
    110 H58          4.6780     7.0800     0.7300 h2         0 *         0.085557
    111 H59          6.1180     5.3590     0.0220 h1         0 *         0.065129
    112 H60          5.9700     3.5060    -1.4680 h1         0 *         0.081414
    113 H61          3.2210     3.5110    -1.7600 ho         0 *         0.435429
    114 H5           5.7630     7.2620    -3.5410 h1         0 *         0.044176
    115 H29          4.2280     6.9700    -2.7270 h1         0 *         0.044176
    116 H87          5.0990     5.6340    -3.5130 h1         0 *         0.044176
    117 H62          2.0720     7.1220     1.1830 h1         0 *         0.072700
    118 H63          0.6720     6.9700     0.4120 h1         0 *         0.090414
    119 H64         -1.1880     7.7620     1.5490 h2         0 *         0.085557
    120 H65         -0.2820     9.7110     0.9030 h1         0 *         0.065129
    121 H66          1.8520     9.3390     0.6740 h1         0 *         0.081414
    122 H67          1.7500     8.5830    -2.0280 ho         0 *         0.435429
    123 H6          -1.7360     9.9000    -2.8670 h1         0 *         0.044176
    124 H30         -1.4650     8.2860    -2.2020 h1         0 *         0.044176
    125 H88         -0.1160     9.2260    -2.8780 h1         0 *         0.044176
    126 H68         -3.2350     6.0400    -0.1090 h1         0 *         0.072700
    127 H69         -5.4600     8.0230     0.4110 h1         0 *         0.090414
    128 H70         -4.8260     4.4240     0.9210 h2         0 *         0.085557
    129 H71         -4.7850     5.2870     3.2410 h1         0 *         0.065129
    130 H72         -2.8640     5.8000     2.0940 h1         0 *         0.081414
    131 H73         -4.1580     8.0490     3.0690 ho         0 *         0.435429
    132 H7          -7.4340     7.5680     4.0500 h1         0 *         0.044176
    133 H31         -6.6390     6.0490     4.4860 h1         0 *         0.044176
    134 H89         -7.7010     6.1370     3.0580 h1         0 *         0.044176
    135 H74         -7.9800     2.7050     1.4850 h1         0 *         0.072700
    136 H75         -4.9840     2.3970     1.1180 h1         0 *         0.090414
    137 H76         -7.1420     0.5000    -1.2460 h2         0 *         0.085557
    138 H77         -6.6020     2.4860    -2.4240 h1         0 *         0.065129
    139 H78         -8.2820     2.4680    -0.6570 h1         0 *         0.081414
    140 H79         -7.1040     5.0250    -0.6340 ho         0 *         0.435429
    141 H8          -3.2750     3.7400    -2.1040 h1         0 *         0.044176
    142 H32         -4.5960     3.4000    -3.2310 h1         0 *         0.044176
    143 H90         -3.7630     2.0700    -2.3940 h1         0 *         0.044176
    144 H80         -6.4530    -0.8600    -2.7420 h1         0 *         0.072700
    145 H81         -6.3350    -1.7260    -0.3330 h1         0 *         0.090414
    146 H82         -2.7210    -3.5480    -1.1240 h2         0 *         0.085557
    147 H83         -4.1110    -3.6120    -3.0600 h1         0 *         0.065129
    148 H84         -5.0920    -1.8950    -4.1540 h1         0 *         0.081414
    149 H85         -2.8590    -0.7750    -4.0410 ho         0 *         0.435429
    150 H9          -1.5290    -3.2340    -5.4740 h1         0 *         0.044176
    151 H33         -3.1840    -2.6180    -5.5580 h1         0 *         0.044176
    152 H91         -2.8710    -4.2590    -4.9460 h1         0 *         0.044176
    153 H10         -6.8690    -4.0120    -0.8780 h1         0 *         0.051271
    154 H34         -6.1680    -3.8490    -2.4930 h1         0 *         0.051271
    155 H14         -9.7220    -3.3650    -3.0150 h1         0 *         0.038700
    156 H35         -9.0300    -4.5200    -1.8650 h1         0 *         0.038700
    157 H92         -8.3290    -4.3500    -3.4920 h1         0 *         0.038700
    158 H15         -6.9240     1.1180     3.0650 h1         0 *         0.051271
    159 H36         -5.9500     2.5570     3.4230 h1         0 *         0.051271
    160 H21         -5.7620    -0.1160     4.8100 h1         0 *         0.038700
    161 H22         -4.7930     1.3290     5.1830 h1         0 *         0.038700
    162 H23         -3.9930    -0.1920     4.7560 h1         0 *         0.038700
    163 H16         -4.8320     6.6240    -2.2160 h1         0 *         0.051271
    164 H37         -4.1280     8.1820    -1.8190 h1         0 *         0.051271
    165 H11         -7.1510     6.5560    -2.7930 h1         0 *         0.038700
    166 H12         -8.1140     8.0390    -2.7070 h1         0 *         0.038700
    167 H13         -7.6970     7.1880    -1.2190 h1         0 *         0.038700
    168 H17          0.1560     5.3800    -2.2730 h1         0 *         0.051271
    169 H38          1.8430     5.4210    -1.8400 h1         0 *         0.051271
    170 H18          0.6750     5.9690    -4.5400 h1         0 *         0.038700
    171 H39          2.3960     6.0010    -4.0980 h1         0 *         0.038700
    172 H93          1.6390     7.4260    -4.8310 h1         0 *         0.038700
    173 H19          1.3050     3.8630     1.0550 h1         0 *         0.051271
    174 H40          2.1110     2.3230     0.9540 h1         0 *         0.051271
    175 H20         -0.3090     2.9800    -0.5270 h1         0 *         0.038700
    176 H41          0.6480     1.4950    -0.7500 h1         0 *         0.038700
    177 H94          0.2710     2.5250    -2.1390 h1         0 *         0.038700
    178 H24          2.8300     1.5520     4.1150 h1         0 *         0.051271
    179 H42          3.8800     0.1650     4.4180 h1         0 *         0.051271
    180 H25          1.7650     1.2280     6.2620 h1         0 *         0.038700
    181 H43          2.8300    -0.1630     6.5750 h1         0 *         0.038700
    182 H95          1.0710    -0.3600     6.6290 h1         0 *         0.038700
    183 H26          0.0820    -4.1420     5.0190 h1         0 *         0.044176
    184 H44         -0.8740    -2.6550     5.1090 h1         0 *         0.044176
    185 H96          0.8120    -2.6080     4.5390 h1         0 *         0.044176
    186 H86         -0.2690    -3.9490     0.8440 ho         0 *         0.435429
    187 H27         -1.1960     3.8770     2.9760 h1         0 *         0.038700
    188 H45         -1.8770     2.4990     3.8580 h1         0 *         0.038700
    189 H97         -2.8250     3.2960     2.5830 h1         0 *         0.038700
@<TRIPOS>BOND
     1     1     2 1   
     2     1    90 1   
     3     1    92 1   
     4     1    93 1   
     5     2     3 1   
     6     2     7 1   
     7     2    94 1   
     8     3     4 1   
     9     3    63 1   
    10     3    95 1   
    11     4     5 1   
    12     4    89 1   
    13     4    96 1   
    14     5     6 1   
    15     5    87 1   
    16     5    97 1   
    17     6     7 1   
    18     6     8 1   
    19     6    98 1   
    20     8     9 1   
    21     9    10 1   
    22     9    14 1   
    23     9    99 1   
    24    10    11 1   
    25    10    84 1   
    26    10   100 1   
    27    11    12 1   
    28    12    13 1   
    29    12    18 1   
    30    12   101 1   
    31    13    14 1   
    32    13    16 1   
    33    13   102 1   
    34    14    15 1   
    35    14   103 1   
    36    15   104 1   
    37    16    17 1   
    38    17   105 1   
    39    17   106 1   
    40    17   107 1   
    41    18    19 1   
    42    19    20 1   
    43    19    24 1   
    44    19   108 1   
    45    20    21 1   
    46    20    81 1   
    47    20   109 1   
    48    21    22 1   
    49    22    23 1   
    50    22    28 1   
    51    22   110 1   
    52    23    24 1   
    53    23    26 1   
    54    23   111 1   
    55    24    25 1   
    56    24   112 1   
    57    25   113 1   
    58    26    27 1   
    59    27   114 1   
    60    27   115 1   
    61    27   116 1   
    62    28    29 1   
    63    29    30 1   
    64    29    34 1   
    65    29   117 1   
    66    30    31 1   
    67    30    78 1   
    68    30   118 1   
    69    31    32 1   
    70    32    33 1   
    71    32    38 1   
    72    32   119 1   
    73    33    34 1   
    74    33    36 1   
    75    33   120 1   
    76    34    35 1   
    77    34   121 1   
    78    35   122 1   
    79    36    37 1   
    80    37   123 1   
    81    37   124 1   
    82    37   125 1   
    83    38    39 1   
    84    39    40 1   
    85    39    44 1   
    86    39   126 1   
    87    40    41 1   
    88    40    75 1   
    89    40   127 1   
    90    41    42 1   
    91    42    43 1   
    92    42    48 1   
    93    42   128 1   
    94    43    44 1   
    95    43    46 1   
    96    43   129 1   
    97    44    45 1   
    98    44   130 1   
    99    45   131 1   
   100    46    47 1   
   101    47   132 1   
   102    47   133 1   
   103    47   134 1   
   104    48    49 1   
   105    49    50 1   
   106    49    54 1   
   107    49   135 1   
   108    50    51 1   
   109    50    72 1   
   110    50   136 1   
   111    51    52 1   
   112    52    53 1   
   113    52    58 1   
   114    52   137 1   
   115    53    54 1   
   116    53    56 1   
   117    53   138 1   
   118    54    55 1   
   119    54   139 1   
   120    55   140 1   
   121    56    57 1   
   122    57   141 1   
   123    57   142 1   
   124    57   143 1   
   125    58    59 1   
   126    59    60 1   
   127    59    65 1   
   128    59   144 1   
   129    60    61 1   
   130    60    69 1   
   131    60   145 1   
   132    61    62 1   
   133    62    63 1   
   134    62    64 1   
   135    62   146 1   
   136    64    65 1   
   137    64    67 1   
   138    64   147 1   
   139    65    66 1   
   140    65   148 1   
   141    66   149 1   
   142    67    68 1   
   143    68   150 1   
   144    68   151 1   
   145    68   152 1   
   146    69    70 1   
   147    69   153 1   
   148    69   154 1   
   149    70    71 1   
   150    71   155 1   
   151    71   156 1   
   152    71   157 1   
   153    72    73 1   
   154    72   158 1   
   155    72   159 1   
   156    73    74 1   
   157    74   160 1   
   158    74   161 1   
   159    74   162 1   
   160    75    76 1   
   161    75   163 1   
   162    75   164 1   
   163    76    77 1   
   164    77   165 1   
   165    77   166 1   
   166    77   167 1   
   167    78    79 1   
   168    78   168 1   
   169    78   169 1   
   170    79    80 1   
   171    80   170 1   
   172    80   171 1   
   173    80   172 1   
   174    81    82 1   
   175    81   173 1   
   176    81   174 1   
   177    82    83 1   
   178    83   175 1   
   179    83   176 1   
   180    83   177 1   
   181    84    85 1   
   182    84   178 1   
   183    84   179 1   
   184    85    86 1   
   185    86   180 1   
   186    86   181 1   
   187    86   182 1   
   188    87    88 1   
   189    88   183 1   
   190    88   184 1   
   191    88   185 1   
   192    89   186 1   
   193    90    91 1   
   194    91   187 1   
   195    91   188 1   
   196    91   189 1   
@<TRIPOS>SUBSTRUCTURE
     1 *           1 TEMP              0 ****  ****    0 ROOT
