@<TRIPOS>MOLECULE
*
  160   172     1     0     0
SMALL
bcc


@<TRIPOS>ATOM
      1 C           -1.5880    -3.3570    -0.4710 c3         0 *        -0.020700
      2 C1          -1.4880    -4.1660    -1.5960 c3         0 *        -0.183700
      3 C2          -0.2690    -4.2560    -2.2600 c3         0 *         0.178800
      4 C3           0.8410    -3.5400    -1.8300 c3         0 *        -0.121700
      5 C4           0.7390    -2.7420    -0.6980 c3         0 *        -0.022700
      6 C5          -0.4770    -2.6370    -0.0030 c3         0 *        -0.185000
      7 C6          -0.5960    -1.8210     1.2040 c3         0 *         0.569400
      8 O           -1.1240    -2.2110     2.2280 os         0 *        -0.430600
      9 O1          -0.2100    -0.5280     1.2130 os         0 *        -0.403600
     10 C7          -0.0340     0.2660     0.0210 c3         0 *         0.092400
     11 C8           0.0120     1.7690     0.3360 c3         0 *         0.130100
     12 C9          -0.9170     2.6360    -0.5580 c3         0 *         0.092100
     13 C10         -0.3610     4.0780    -0.7080 c3         0 *         0.134100
     14 C11          1.1310     4.1610    -1.1320 c3         0 *         0.146100
     15 C12          1.7990     2.7820    -0.9850 c3         0 *         0.281900
     16 O2           1.4030     2.1980     0.2520 os         0 *        -0.434600
     17 O3           3.2450     2.7830    -1.0170 os         0 *        -0.391600
     18 C13          3.8360     1.5430    -1.5520 c3         0 *         0.133100
     19 C14          3.7170     0.3250    -0.6640 c3         0 *         0.100600
     20 O4           3.7830    -1.0630    -0.8480 os         0 *        -0.433600
     21 C15          5.2500    -1.3960    -1.2100 c3         0 *         0.300100
     22 C16          6.1250    -0.0460    -1.5470 c3         0 *         0.096100
     23 C17          5.4200     1.4130    -1.5110 c3         0 *         0.128100
     24 O5           5.9530     2.1750    -2.5840 oh         0 *        -0.599800
     25 O6           7.2770     0.0060    -0.7140 oh         0 *        -0.595400
     26 O7           5.8010    -2.2010    -0.1220 os         0 *        -0.437000
     27 C18          5.1040    -3.5060     0.2270 c3         0 *         0.123600
     28 C19          4.3920    -4.2100    -0.9680 c3         0 *         0.098850
     29 O8           3.3340    -5.1180    -0.5520 os         0 *        -0.432850
     30 C20          3.3620    -5.6330     0.7880 c3         0 *         0.300100
     31 C21          3.2720    -4.4860     1.8240 c3         0 *         0.103100
     32 C22          4.1540    -3.2820     1.4240 c3         0 *         0.107350
     33 O9           4.9400    -2.8660     2.5320 oh         0 *        -0.599050
     34 O10          1.9330    -4.0180     2.0050 oh         0 *        -0.595400
     35 O11          2.2820    -6.6070     0.9120 os         0 *        -0.437000
     36 C23          2.3250    -7.7460    -0.0200 c3         0 *         0.123600
     37 C24          1.4740    -7.4520    -1.2830 c3         0 *         0.098850
     38 O12          0.0320    -7.7660    -1.1330 os         0 *        -0.432850
     39 C25         -0.3870    -8.8090    -0.2050 c3         0 *         0.300100
     40 C26          0.7500    -9.7890     0.1470 c3         0 *         0.103100
     41 C27          1.9530    -9.0400     0.7340 c3         0 *         0.107350
     42 O13          3.0620    -9.9290     0.7680 oh         0 *        -0.599050
     43 O14          0.3100   -10.7840     1.0720 oh         0 *        -0.595400
     44 O15         -0.8980    -8.1730     0.9950 os         0 *        -0.437000
     45 C28         -2.0250    -7.2350     0.8250 c3         0 *         0.123600
     46 C29         -2.0970    -6.2180     1.9880 c3         0 *         0.098850
     47 O16         -3.1830    -5.2410     1.7750 os         0 *        -0.432850
     48 C30         -4.1460    -5.5040     0.7340 c3         0 *         0.300100
     49 C31         -4.5960    -6.9870     0.7370 c3         0 *         0.103100
     50 C32         -3.3930    -7.9630     0.7730 c3         0 *         0.107350
     51 O17         -3.4940    -8.8670    -0.3240 oh         0 *        -0.599050
     52 O18         -5.4830    -7.2680     1.8170 oh         0 *        -0.595400
     53 O19         -5.2280    -4.5610     0.9330 os         0 *        -0.437000
     54 C33         -6.3150    -4.4160    -0.0640 c3         0 *         0.123600
     55 C34         -5.8010    -3.7060    -1.3580 c3         0 *         0.098850
     56 O20         -6.6740    -2.6460    -1.8950 os         0 *        -0.432850
     57 C35         -7.4780    -1.8700    -0.9920 c3         0 *         0.300100
     58 C36         -8.3590    -2.7990    -0.1490 c3         0 *         0.103100
     59 C37         -7.4760    -3.7280     0.6880 c3         0 *         0.107350
     60 O21         -8.3010    -4.7200     1.2850 oh         0 *        -0.599050
     61 O22         -9.2280    -2.0540     0.7070 oh         0 *        -0.595400
     62 O23         -6.5970    -1.0710    -0.1660 os         0 *        -0.437000
     63 C38         -5.7040    -0.1070    -0.8600 c3         0 *         0.131100
     64 C39         -4.1760    -0.0920    -0.3940 c3         0 *         0.100600
     65 O24         -3.0390     0.5670    -0.8270 os         0 *        -0.444600
     66 C40         -3.3560     2.0550    -0.7460 c3         0 *         0.308900
     67 O25         -2.2790     2.6840     0.0040 os         0 *        -0.454600
     68 C41         -4.8560     2.3930    -0.1110 c3         0 *         0.108100
     69 C42         -6.0930     1.4120    -0.4410 c3         0 *         0.095100
     70 O26         -6.8960     1.9780    -1.4680 oh         0 *        -0.605800
     71 O27         -4.8140     2.4970     1.3110 oh         0 *        -0.588800
     72 C43         -4.1810    -0.9850     0.8690 c3         0 *         0.110400
     73 O28         -4.6810    -0.2750     1.9960 oh         0 *        -0.606967
     74 C44         -5.5910    -4.7000    -2.5160 c3         0 *         0.125400
     75 O29         -4.6600    -5.7350    -2.2460 oh         0 *        -0.606967
     76 C45         -0.7910    -5.4470     2.2300 c3         0 *         0.125400
     77 O30          0.2560    -6.2340     2.7790 oh         0 *        -0.606967
     78 C46          2.0230    -8.1420    -2.5450 c3         0 *         0.125400
     79 O31          3.3680    -7.7760    -2.8260 oh         0 *        -0.606967
     80 C47          5.3560    -4.9720    -1.8920 c3         0 *         0.125400
     81 O32          6.2730    -4.1070    -2.5460 oh         0 *        -0.606967
     82 C48          3.5720     0.2520     0.8770 c3         0 *         0.110400
     83 O33          3.8210     1.5030     1.4890 oh         0 *        -0.606967
     84 O34          1.8180     5.1430    -0.3560 oh         0 *        -0.590800
     85 O35         -1.1710     4.7740    -1.6480 oh         0 *        -0.595800
     86 O36         -0.1460    -5.0670    -3.3350 oh         0 *        -0.517800
     87 H           -2.5050    -3.2870     0.0560 hc         0 *         0.115700
     88 H3          -2.3250    -4.7110    -1.9450 hc         0 *         0.118700
     89 H4           1.7560    -3.6300    -2.3540 hc         0 *         0.135700
     90 H5           1.5930    -2.2320    -0.3360 hc         0 *         0.102700
     91 H1           0.9010    -0.0190    -0.4580 h1         0 *         0.062700
     92 H2          -0.8300     0.0450    -0.6810 h1         0 *         0.062700
     93 H6          -0.2870     1.9160     1.3760 h1         0 *         0.109700
     94 H7          -0.9760     2.1910    -1.5530 h1         0 *         0.072700
     95 H8          -0.4510     4.5630     0.2660 h1         0 *         0.087700
     96 H9           1.1980     4.4400    -2.1840 h1         0 *         0.078700
     97 H10          1.4460     2.1440    -1.7860 h2         0 *         0.056700
     98 H11          3.4690     1.4270    -2.5810 h1         0 *         0.063700
     99 H12          3.7800    -0.0440    -1.6850 h1         0 *         0.096700
    100 H13          5.2300    -1.9930    -2.1110 h2         0 *         0.085900
    101 H14          6.4740    -0.2020    -2.5690 h1         0 *         0.077900
    102 H15          5.7310     1.8860    -0.5760 h1         0 *         0.096700
    103 H16          6.8760     2.3630    -2.3760 ho         0 *         0.416500
    104 H17          7.3000    -0.8230    -0.2120 ho         0 *         0.432000
    105 H18          5.8930    -4.1730     0.5750 h1         0 *         0.089300
    106 H19          3.8690    -3.4720    -1.5700 h1         0 *         0.088450
    107 H20          4.3020    -6.1560     0.9210 h2         0 *         0.085900
    108 H21          3.6230    -4.8880     2.7740 h1         0 *         0.077900
    109 H22          3.4740    -2.4750     1.1570 h1         0 *         0.083700
    110 H23          5.4280    -2.0790     2.2650 ho         0 *         0.416500
    111 H24          1.4040    -4.7470     2.3710 ho         0 *         0.432000
    112 H25          3.3670    -7.8370    -0.3300 h1         0 *         0.089300
    113 H26          1.5120    -6.3810    -1.4760 h1         0 *         0.088450
    114 H27         -1.1910    -9.3660    -0.6670 h2         0 *         0.085900
    115 H28          1.0570   -10.2800    -0.7750 h1         0 *         0.077900
    116 H29          1.7020    -8.7600     1.7590 h1         0 *         0.083700
    117 H30          2.7610   -10.7400     1.1970 ho         0 *         0.416500
    118 H31         -0.2420   -10.3450     1.7320 ho         0 *         0.432000
    119 H32         -1.8630    -6.6880    -0.1040 h1         0 *         0.089300
    120 H33         -2.3410    -6.7510     2.9080 h1         0 *         0.088450
    121 H34         -3.6580    -5.2720    -0.2000 h2         0 *         0.085900
    122 H35         -5.1460    -7.1460    -0.1890 h1         0 *         0.077900
    123 H36         -3.4680    -8.5450     1.6940 h1         0 *         0.083700
    124 H37         -4.2360    -9.4580    -0.1520 ho         0 *         0.416500
    125 H38         -5.9220    -6.4370     2.0540 ho         0 *         0.432000
    126 H39         -6.6540    -5.4190    -0.3300 h1         0 *         0.089300
    127 H40         -4.8490    -3.2240    -1.1350 h1         0 *         0.088450
    128 H41         -8.1030    -1.2030    -1.5730 h2         0 *         0.085900
    129 H42         -8.9540    -3.4020    -0.8360 h1         0 *         0.077900
    130 H43         -7.0310    -3.1190     1.4780 h1         0 *         0.083700
    131 H44         -9.0510    -4.2630     1.6880 ho         0 *         0.416500
    132 H45         -8.7050    -1.3690     1.1420 ho         0 *         0.432000
    133 H46         -5.9330    -0.2830    -1.9440 h1         0 *         0.089300
    134 H47         -4.6100     0.3520    -1.2410 h1         0 *         0.084700
    135 H48         -3.3280     2.4370    -1.7590 h2         0 *         0.083700
    136 H49         -5.1100     3.3870    -0.4780 h1         0 *         0.093700
    137 H50         -6.7040     1.3410     0.4610 h1         0 *         0.088700
    138 H51         -7.4560     2.6620    -1.0830 ho         0 *         0.416500
    139 H52         -4.5660     1.6300     1.6810 ho         0 *         0.430000
    140 H62         -3.1420    -1.2240     1.0810 h1         0 *         0.061450
    141 H68         -4.6880    -1.9380     0.7260 h1         0 *         0.061450
    142 H53         -4.5020    -0.8080     2.7820 ho         0 *         0.416833
    143 H63         -5.2500    -4.1340    -3.3850 h1         0 *         0.061450
    144 H69         -6.5590    -5.1400    -2.7670 h1         0 *         0.061450
    145 H54         -4.6490    -6.3520    -2.9890 ho         0 *         0.416833
    146 H64         -1.0090    -4.6370     2.9290 h1         0 *         0.061450
    147 H70         -0.4590    -5.0090     1.2900 h1         0 *         0.061450
    148 H55          0.6800    -6.7130     2.0480 ho         0 *         0.416833
    149 H65          1.3910    -7.8510    -3.3850 h1         0 *         0.061450
    150 H71          1.9630    -9.2230    -2.4260 h1         0 *         0.061450
    151 H56          3.6450    -8.1980    -3.6470 ho         0 *         0.416833
    152 H66          4.7590    -5.4930    -2.6430 h1         0 *         0.061450
    153 H72          5.8960    -5.7180    -1.3090 h1         0 *         0.061450
    154 H57          6.8450    -4.6250    -3.1240 ho         0 *         0.416833
    155 H67          4.3040    -0.4450     1.2850 h1         0 *         0.061450
    156 H73          2.5750    -0.1000     1.1440 h1         0 *         0.061450
    157 H58          3.1250     2.1100     1.1880 ho         0 *         0.416833
    158 H59          2.7440     4.8700    -0.3060 ho         0 *         0.434000
    159 H60         -1.9410     5.1030    -1.1740 ho         0 *         0.419000
    160 H61         -0.9110    -5.6710    -3.3930 ho         0 *         0.426000
@<TRIPOS>BOND
     1     1     2 1   
     2     1     6 1   
     3     1     6 1   
     4     1    87 1   
     5     2     3 1   
     6     2     3 1   
     7     2    88 1   
     8     3     4 1   
     9     3    86 1   
    10     4     5 1   
    11     4     5 1   
    12     4    89 1   
    13     5     6 1   
    14     5    90 1   
    15     6     7 1   
    16     7     8 1   
    17     7     8 1   
    18     7     9 1   
    19     9    10 1   
    20    10    11 1   
    21    10    91 1   
    22    10    92 1   
    23    11    12 1   
    24    11    16 1   
    25    11    93 1   
    26    12    13 1   
    27    12    67 1   
    28    12    94 1   
    29    13    14 1   
    30    13    85 1   
    31    13    95 1   
    32    14    15 1   
    33    14    84 1   
    34    14    96 1   
    35    15    16 1   
    36    15    17 1   
    37    15    97 1   
    38    17    18 1   
    39    18    19 1   
    40    18    23 1   
    41    18    98 1   
    42    19    20 1   
    43    19    82 1   
    44    19    99 1   
    45    20    21 1   
    46    21    22 1   
    47    21    26 1   
    48    21   100 1   
    49    22    23 1   
    50    22    25 1   
    51    22   101 1   
    52    23    24 1   
    53    23   102 1   
    54    24   103 1   
    55    25   104 1   
    56    26    27 1   
    57    27    28 1   
    58    27    32 1   
    59    27   105 1   
    60    28    29 1   
    61    28    80 1   
    62    28   106 1   
    63    29    30 1   
    64    30    31 1   
    65    30    35 1   
    66    30   107 1   
    67    31    32 1   
    68    31    34 1   
    69    31   108 1   
    70    32    33 1   
    71    32   109 1   
    72    33   110 1   
    73    34   111 1   
    74    35    36 1   
    75    36    37 1   
    76    36    41 1   
    77    36   112 1   
    78    37    38 1   
    79    37    78 1   
    80    37   113 1   
    81    38    39 1   
    82    39    40 1   
    83    39    44 1   
    84    39   114 1   
    85    40    41 1   
    86    40    43 1   
    87    40   115 1   
    88    41    42 1   
    89    41   116 1   
    90    42   117 1   
    91    43   118 1   
    92    44    45 1   
    93    45    46 1   
    94    45    50 1   
    95    45   119 1   
    96    46    47 1   
    97    46    76 1   
    98    46   120 1   
    99    47    48 1   
   100    48    49 1   
   101    48    53 1   
   102    48   121 1   
   103    49    50 1   
   104    49    52 1   
   105    49   122 1   
   106    50    51 1   
   107    50   123 1   
   108    51   124 1   
   109    52   125 1   
   110    53    54 1   
   111    54    55 1   
   112    54    59 1   
   113    54   126 1   
   114    55    56 1   
   115    55    74 1   
   116    55   127 1   
   117    56    57 1   
   118    57    58 1   
   119    57    62 1   
   120    57   128 1   
   121    58    59 1   
   122    58    61 1   
   123    58   129 1   
   124    59    60 1   
   125    59   130 1   
   126    60   131 1   
   127    61   132 1   
   128    62    63 1   
   129    63    64 1   
   130    63    69 1   
   131    63   133 1   
   132    64    65 1   
   133    64    72 1   
   134    64   134 1   
   135    65    66 1   
   136    66    67 1   
   137    66    68 1   
   138    66   135 1   
   139    68    69 1   
   140    68    71 1   
   141    68   136 1   
   142    69    70 1   
   143    69   137 1   
   144    70   138 1   
   145    71   139 1   
   146    72    73 1   
   147    72   140 1   
   148    72   141 1   
   149    73   142 1   
   150    74    75 1   
   151    74   143 1   
   152    74   144 1   
   153    75   145 1   
   154    76    77 1   
   155    76   146 1   
   156    76   147 1   
   157    77   148 1   
   158    78    79 1   
   159    78   149 1   
   160    78   150 1   
   161    79   151 1   
   162    80    81 1   
   163    80   152 1   
   164    80   153 1   
   165    81   154 1   
   166    82    83 1   
   167    82   155 1   
   168    82   156 1   
   169    83   157 1   
   170    84   158 1   
   171    85   159 1   
   172    86   160 1   
@<TRIPOS>SUBSTRUCTURE
     1 *           1 TEMP              0 ****  ****    0 ROOT
