@<TRIPOS>MOLECULE
*
   29    30     1     0     0
SMALL
bcc


@<TRIPOS>ATOM
      1 C            4.7190    -2.5010     1.1290 c3         0 *        -0.086600
      2 C1           4.0720    -1.2400     0.5020 c3         0 *        -0.045000
      3 C2           4.0990    -1.1900    -1.0390 c3         0 *        -0.068700
      4 C3           3.3280     0.0990    -1.3910 c3         0 *        -0.081400
      5 C4           2.2370     0.1240    -0.3050 c3         0 *        -0.074400
      6 C5           2.5200    -1.1750     0.4910 c3         0 *        -0.090000
      7 C6           2.0670    -2.3220    -0.4580 c3         0 *         0.143100
      8 C7           3.2140    -2.3770    -1.4770 c3         0 *        -0.075400
      9 O            1.8870    -3.5740     0.1750 oh         0 *        -0.596800
     10 C8           1.8250    -1.1590     1.8640 c3         0 *        -0.079100
     11 C9           4.8160    -0.0740     1.2070 c3         0 *        -0.086600
     12 H1           4.5600    -2.5040     2.2070 hc         0 *         0.038533
     13 H2           5.7910    -2.5040     0.9310 hc         0 *         0.038533
     14 H3           4.3130    -3.4280     0.7350 hc         0 *         0.038533
     15 H            5.1010    -1.2230    -1.4690 hc         0 *         0.069700
     16 H4           3.9750     0.9740    -1.3120 hc         0 *         0.043700
     17 H9           2.8990     0.0550    -2.3930 hc         0 *         0.043700
     18 H5           1.2370     0.1260    -0.7430 hc         0 *         0.044200
     19 H10          2.3440     1.0070     0.3270 hc         0 *         0.044200
     20 H16          1.1360    -2.0520    -0.9590 h1         0 *         0.034700
     21 H6           3.7590    -3.3180    -1.4060 hc         0 *         0.057200
     22 H11          2.8420    -2.2520    -2.4930 hc         0 *         0.057200
     23 H17          1.3580    -3.4320     0.9630 ho         0 *         0.401000
     24 H7           2.1480    -0.2880     2.4340 hc         0 *         0.039033
     25 H12          2.0850    -2.0570     2.4250 hc         0 *         0.039033
     26 H14          0.7440    -1.1140     1.7310 hc         0 *         0.039033
     27 H8           5.8840    -0.1410     1.0010 hc         0 *         0.038533
     28 H13          4.6640    -0.1360     2.2850 hc         0 *         0.038533
     29 H15          4.4820     0.9080     0.8840 hc         0 *         0.038533
@<TRIPOS>BOND
     1     1     2 1   
     2     1    12 1   
     3     1    13 1   
     4     1    14 1   
     5     2     3 1   
     6     2     6 1   
     7     2    11 1   
     8     3     4 1   
     9     3     8 1   
    10     3    15 1   
    11     4     5 1   
    12     4    16 1   
    13     4    17 1   
    14     5     6 1   
    15     5    18 1   
    16     5    19 1   
    17     6     7 1   
    18     6    10 1   
    19     7     8 1   
    20     7     9 1   
    21     7    20 1   
    22     8    21 1   
    23     8    22 1   
    24     9    23 1   
    25    10    24 1   
    26    10    25 1   
    27    10    26 1   
    28    11    27 1   
    29    11    28 1   
    30    11    29 1   
@<TRIPOS>SUBSTRUCTURE
     1 *           1 TEMP              0 ****  ****    0 ROOT
