@<TRIPOS>MOLECULE
*
  159   171     1     0     0
SMALL
bcc


@<TRIPOS>ATOM
      1 C           -3.5590    -0.9790     1.1170 c3         0 *         0.002300
      2 C1          -3.4900    -2.2260     1.7310 c3         0 *        -0.135700
      3 C2          -2.2660    -2.8920     1.8060 c3         0 *         0.215800
      4 C3          -1.0890    -2.3010     1.3470 c3         0 *        -0.182700
      5 C4          -1.1420    -1.0590     0.7280 c3         0 *         0.005300
      6 C5          -2.3790    -0.4220     0.6200 c3         0 *        -0.017800
      7 N           -2.4160     0.8550    -0.0250 n4         0 *         0.321400
      8 O           -2.4040     0.9290    -1.2450 os         0 *        -0.292600
      9 O1          -2.3780     1.8770     0.6380 o          0 *        -0.381000
     10 O2          -2.2600    -4.1580     2.3220 os         0 *        -0.337600
     11 C6          -1.1520    -5.1180     2.3690 c3         0 *         0.129400
     12 C7          -0.9590    -5.9450     1.0820 c3         0 *         0.119100
     13 C8           0.0210    -5.3340     0.0410 c3         0 *         0.113100
     14 C9          -0.0220    -6.2660    -1.2020 c3         0 *         0.114100
     15 C10         -1.4320    -6.2790    -1.8320 c3         0 *         0.102100
     16 C11         -2.5000    -5.7620    -0.8440 c3         0 *         0.296900
     17 O3          -2.2740    -6.2850     0.4770 os         0 *        -0.442600
     18 O4          -3.8480    -6.0990    -1.2650 os         0 *        -0.438600
     19 C12         -4.9610    -5.2140    -0.8270 c3         0 *         0.098100
     20 C13         -4.7000    -3.7020    -1.0540 c3         0 *         0.083600
     21 O5          -5.7150    -2.8620    -0.4420 os         0 *        -0.432600
     22 C14         -6.9050    -3.4640     0.1060 c3         0 *         0.314700
     23 C15         -6.5780    -4.6380     1.0730 c3         0 *         0.135100
     24 C16         -5.3380    -5.4580     0.6460 c3         0 *         0.098100
     25 O6          -5.5630    -6.8500     0.8230 oh         0 *        -0.593800
     26 O7          -6.4150    -4.1480     2.4030 oh         0 *        -0.595200
     27 O8          -7.6130    -2.4120     0.8160 os         0 *        -0.428600
     28 C17         -8.4050    -1.4010     0.0710 c3         0 *         0.105100
     29 C18         -7.6680    -0.7710    -1.1460 c3         0 *         0.114100
     30 O9          -6.6100     0.1360    -0.7210 os         0 *        -0.437600
     31 C19         -7.0020     1.1990     0.1700 c3         0 *         0.314700
     32 C20         -7.7420     0.6840     1.4270 c3         0 *         0.122350
     33 C21         -8.8640    -0.3150     1.0750 c3         0 *         0.102100
     34 O10        -10.0150     0.3920     0.6170 oh         0 *        -0.604050
     35 O11         -6.8340     0.1490     2.3900 oh         0 *        -0.595200
     36 O12         -5.7880     1.8960     0.5300 os         0 *        -0.428600
     37 C22         -5.6730     3.2980     0.1290 c3         0 *         0.105100
     38 C23         -4.9120     3.4200    -1.2120 c3         0 *         0.114100
     39 O13         -4.5480     4.8140    -1.4940 os         0 *        -0.437600
     40 C24         -3.7570     5.4560    -0.4810 c3         0 *         0.314700
     41 C25         -4.4950     5.4730     0.8720 c3         0 *         0.122350
     42 C26         -4.9700     4.0630     1.2670 c3         0 *         0.102100
     43 O14         -5.8560     4.1780     2.3770 oh         0 *        -0.604050
     44 O15         -3.6440     5.9900     1.9030 oh         0 *        -0.595200
     45 O16         -2.5230     4.7190    -0.3700 os         0 *        -0.428600
     46 C27         -1.3250     5.2940    -0.9580 c3         0 *         0.105100
     47 C28         -0.4890     4.1810    -1.6170 c3         0 *         0.114100
     48 O17          0.8010     4.7110    -2.0760 os         0 *        -0.437600
     49 C29          1.6150     5.3240    -1.0650 c3         0 *         0.314700
     50 C30          0.8460     6.4800    -0.3860 c3         0 *         0.122350
     51 C31         -0.5110     5.9990     0.1500 c3         0 *         0.102100
     52 O18         -1.2350     7.1200     0.6590 oh         0 *        -0.604050
     53 O19          1.6050     7.0840     0.6600 oh         0 *        -0.595200
     54 O20          2.0010     4.2720    -0.1420 os         0 *        -0.428600
     55 C32          3.1160     3.4160    -0.5660 c3         0 *         0.105100
     56 C33          2.6380     2.2280    -1.4400 c3         0 *         0.114100
     57 O21          3.1290     0.9270    -0.9500 os         0 *        -0.437600
     58 C34          4.5480     0.8080    -0.5780 c3         0 *         0.314700
     59 C35          5.0610     2.0630     0.1920 c3         0 *         0.122350
     60 C36          3.8910     2.9370     0.6680 c3         0 *         0.102100
     61 O22          4.3660     4.0700     1.3890 oh         0 *        -0.604050
     62 O23          5.8870     1.7540     1.3150 oh         0 *        -0.595200
     63 O24          4.6690    -0.4280     0.2020 os         0 *        -0.428600
     64 C37          4.0090    -1.6230    -0.3560 c3         0 *         0.105100
     65 C38          2.5610    -1.9600     0.2220 c3         0 *         0.083600
     66 O25          1.5870    -2.8810    -0.1100 os         0 *        -0.475600
     67 C39          2.2740    -4.2550    -0.0730 c3         0 *         0.300900
     68 O26          1.3720    -5.1830     0.6140 os         0 *        -0.387600
     69 C40          3.8000    -4.2030     0.5640 c3         0 *         0.142100
     70 C41          4.7610    -2.9800     0.1290 c3         0 *         0.103100
     71 O27          5.6560    -3.3990    -0.8920 oh         0 *        -0.597800
     72 O28          3.7680    -4.2130     1.9970 oh         0 *        -0.574800
     73 C42          2.4440    -1.0270     1.4540 c3         0 *         0.132400
     74 O29          3.3640    -1.3770     2.4790 oh         0 *        -0.608467
     75 C43          2.9930     2.4180    -2.9250 c3         0 *         0.107650
     76 O30          4.3960     2.5830    -3.1150 oh         0 *        -0.608467
     77 C44         -1.2240     3.5170    -2.7910 c3         0 *         0.107650
     78 O31         -0.6830     2.2320    -3.0670 oh         0 *        -0.608467
     79 C45         -5.6770     2.8360    -2.4070 c3         0 *         0.107650
     80 O32         -6.9790     3.3940    -2.5290 oh         0 *        -0.608467
     81 C46         -8.6000    -0.0790    -2.1550 c3         0 *         0.107650
     82 O33         -9.5120    -1.0210    -2.6990 oh         0 *        -0.608467
     83 C47         -4.5420    -3.3040    -2.5280 c3         0 *         0.132400
     84 O34         -3.2740    -3.6840    -3.0460 oh         0 *        -0.608467
     85 O35         -1.7370    -7.5930    -2.2940 oh         0 *        -0.594800
     86 O36          0.9130    -5.9420    -2.2260 oh         0 *        -0.598800
     87 H           -4.4890    -0.4760     1.0200 hc         0 *         0.137700
     88 H3          -4.3630    -2.6790     2.1240 hc         0 *         0.149700
     89 H4          -0.1650    -2.7970     1.4730 hc         0 *         0.139700
     90 H5          -0.2620    -0.6080     0.3450 hc         0 *         0.121700
     91 H1          -0.2220    -4.6200     2.6430 h1         0 *         0.087200
     92 H2          -1.3870    -5.8220     3.1670 h1         0 *         0.087200
     93 H6          -0.5260    -6.8980     1.3890 h1         0 *         0.088700
     94 H7          -0.3270    -4.3430    -0.2460 h1         0 *         0.092700
     95 H8           0.2030    -7.2760    -0.8510 h1         0 *         0.087700
     96 H9          -1.4550    -5.5990    -2.6840 h1         0 *         0.056700
     97 H10         -2.3910    -4.6900    -0.7890 h2         0 *         0.084700
     98 H11         -5.8150    -5.5080    -1.4380 h1         0 *         0.100700
     99 H12         -3.7880    -3.4120    -0.5410 h1         0 *         0.072700
    100 H13         -7.5160    -3.8190    -0.7150 h2         0 *         0.084300
    101 H14         -7.4490    -5.2930     1.0650 h1         0 *         0.081900
    102 H15         -4.4980    -5.1530     1.2720 h1         0 *         0.063700
    103 H16         -4.7250    -7.2860     0.6190 ho         0 *         0.422333
    104 H17         -6.8050    -3.2600     2.4090 ho         0 *         0.428000
    105 H18         -9.2850    -1.9320    -0.2930 h1         0 *         0.078500
    106 H19         -7.1810    -1.5580    -1.7140 h1         0 *         0.098700
    107 H20         -7.6550     1.8660    -0.3810 h2         0 *         0.084300
    108 H21         -8.2040     1.5600     1.8850 h1         0 *         0.081900
    109 H22         -9.1360    -0.8230     2.0020 h1         0 *         0.078200
    110 H23        -10.7890    -0.1750     0.7080 ho         0 *         0.422333
    111 H24         -6.0400     0.6950     2.3330 ho         0 *         0.428000
    112 H25         -6.6750     3.7150     0.0150 h1         0 *         0.078500
    113 H26         -3.9800     2.8680    -1.1220 h1         0 *         0.098700
    114 H27         -3.5460     6.4720    -0.7930 h2         0 *         0.084300
    115 H28         -5.3680     6.1160     0.7530 h1         0 *         0.081900
    116 H29         -4.0970     3.4790     1.5620 h1         0 *         0.078200
    117 H30         -5.4360     4.7320     3.0440 ho         0 *         0.422333
    118 H31         -3.0370     5.2840     2.1610 ho         0 *         0.428000
    119 H32         -1.6150     6.0180    -1.7220 h1         0 *         0.078500
    120 H33         -0.2880     3.4180    -0.8640 h1         0 *         0.098700
    121 H34          2.5070     5.7240    -1.5310 h2         0 *         0.084300
    122 H35          0.6560     7.2270    -1.1570 h1         0 *         0.081900
    123 H36         -0.3260     5.2830     0.9530 h1         0 *         0.078200
    124 H37         -2.0250     6.8140     1.1320 ho         0 *         0.422333
    125 H38          1.0010     7.6730     1.1310 ho         0 *         0.428000
    126 H39          3.7970     4.0410    -1.1470 h1         0 *         0.078500
    127 H40          1.5520     2.1670    -1.3670 h1         0 *         0.098700
    128 H41          5.1260     0.6910    -1.4860 h2         0 *         0.084300
    129 H42          5.6450     2.6500    -0.5170 h1         0 *         0.081900
    130 H43          3.2300     2.3440     1.3030 h1         0 *         0.078200
    131 H44          3.6210     4.6790     1.4850 ho         0 *         0.422333
    132 H45          5.8980     2.5560     1.8560 ho         0 *         0.428000
    133 H46          4.1440    -1.4730    -1.4620 h1         0 *         0.078500
    134 H47          3.0370    -2.3280    -0.6380 h1         0 *         0.073700
    135 H48          2.3820    -4.5710    -1.1000 h2         0 *         0.070700
    136 H49          4.2810    -5.1330     0.2590 h1         0 *         0.113700
    137 H50          5.3610    -2.7240     1.0040 h1         0 *         0.085700
    138 H51          6.4290    -2.8240    -0.8730 ho         0 *         0.422333
    139 H52          3.4230    -3.3630     2.3170 ho         0 *         0.426000
    140 H61          1.4440    -1.1570     1.8650 h1         0 *         0.060200
    141 H67          2.5320     0.0230     1.1880 h1         0 *         0.060200
    142 H53          4.1880    -0.9010     2.2880 ho         0 *         0.416500
    143 H62          2.4650     3.2930    -3.3080 h1         0 *         0.060200
    144 H68          2.6440     1.5430    -3.4760 h1         0 *         0.060200
    145 H54          4.5680     2.7240    -4.0530 ho         0 *         0.416500
    146 H63         -1.1300     4.1530    -3.6730 h1         0 *         0.060200
    147 H69         -2.2820     3.4110    -2.5520 h1         0 *         0.060200
    148 H55         -1.2160     1.5780    -2.5870 ho         0 *         0.416500
    149 H64         -5.7470     1.7550    -2.2950 h1         0 *         0.060200
    150 H70         -5.1070     3.0370    -3.3160 h1         0 *         0.060200
    151 H56         -6.8810     4.3310    -2.7350 ho         0 *         0.416500
    152 H65         -7.9880     0.3420    -2.9550 h1         0 *         0.060200
    153 H71         -9.1410     0.7390    -1.6780 h1         0 *         0.060200
    154 H57        -10.0870    -0.5750    -3.3310 ho         0 *         0.416500
    155 H66         -4.6340    -2.2170    -2.5940 h1         0 *         0.060200
    156 H72         -5.3430    -3.7550    -3.1150 h1         0 *         0.060200
    157 H58         -3.1970    -3.3720    -3.9550 ho         0 *         0.416500
    158 H59         -2.7000    -7.6760    -2.2510 ho         0 *         0.430000
    159 H60          0.8550    -6.6340    -2.8960 ho         0 *         0.410000
@<TRIPOS>BOND
     1     1     2 1   
     2     1     6 1   
     3     1     6 1   
     4     1    87 1   
     5     2     3 1   
     6     2     3 1   
     7     2    88 1   
     8     3     4 1   
     9     3    10 1   
    10     4     5 1   
    11     4     5 1   
    12     4    89 1   
    13     5     6 1   
    14     5    90 1   
    15     6     7 1   
    16     7     8 1   
    17     7     8 1   
    18     7     9 1   
    19    10    11 1   
    20    11    12 1   
    21    11    91 1   
    22    11    92 1   
    23    12    13 1   
    24    12    17 1   
    25    12    93 1   
    26    13    14 1   
    27    13    68 1   
    28    13    94 1   
    29    14    15 1   
    30    14    86 1   
    31    14    95 1   
    32    15    16 1   
    33    15    85 1   
    34    15    96 1   
    35    16    17 1   
    36    16    18 1   
    37    16    97 1   
    38    18    19 1   
    39    19    20 1   
    40    19    24 1   
    41    19    98 1   
    42    20    21 1   
    43    20    83 1   
    44    20    99 1   
    45    21    22 1   
    46    22    23 1   
    47    22    27 1   
    48    22   100 1   
    49    23    24 1   
    50    23    26 1   
    51    23   101 1   
    52    24    25 1   
    53    24   102 1   
    54    25   103 1   
    55    26   104 1   
    56    27    28 1   
    57    28    29 1   
    58    28    33 1   
    59    28   105 1   
    60    29    30 1   
    61    29    81 1   
    62    29   106 1   
    63    30    31 1   
    64    31    32 1   
    65    31    36 1   
    66    31   107 1   
    67    32    33 1   
    68    32    35 1   
    69    32   108 1   
    70    33    34 1   
    71    33   109 1   
    72    34   110 1   
    73    35   111 1   
    74    36    37 1   
    75    37    38 1   
    76    37    42 1   
    77    37   112 1   
    78    38    39 1   
    79    38    79 1   
    80    38   113 1   
    81    39    40 1   
    82    40    41 1   
    83    40    45 1   
    84    40   114 1   
    85    41    42 1   
    86    41    44 1   
    87    41   115 1   
    88    42    43 1   
    89    42   116 1   
    90    43   117 1   
    91    44   118 1   
    92    45    46 1   
    93    46    47 1   
    94    46    51 1   
    95    46   119 1   
    96    47    48 1   
    97    47    77 1   
    98    47   120 1   
    99    48    49 1   
   100    49    50 1   
   101    49    54 1   
   102    49   121 1   
   103    50    51 1   
   104    50    53 1   
   105    50   122 1   
   106    51    52 1   
   107    51   123 1   
   108    52   124 1   
   109    53   125 1   
   110    54    55 1   
   111    55    56 1   
   112    55    60 1   
   113    55   126 1   
   114    56    57 1   
   115    56    75 1   
   116    56   127 1   
   117    57    58 1   
   118    58    59 1   
   119    58    63 1   
   120    58   128 1   
   121    59    60 1   
   122    59    62 1   
   123    59   129 1   
   124    60    61 1   
   125    60   130 1   
   126    61   131 1   
   127    62   132 1   
   128    63    64 1   
   129    64    65 1   
   130    64    70 1   
   131    64   133 1   
   132    65    66 1   
   133    65    73 1   
   134    65   134 1   
   135    66    67 1   
   136    67    68 1   
   137    67    69 1   
   138    67   135 1   
   139    69    70 1   
   140    69    72 1   
   141    69   136 1   
   142    70    71 1   
   143    70   137 1   
   144    71   138 1   
   145    72   139 1   
   146    73    74 1   
   147    73   140 1   
   148    73   141 1   
   149    74   142 1   
   150    75    76 1   
   151    75   143 1   
   152    75   144 1   
   153    76   145 1   
   154    77    78 1   
   155    77   146 1   
   156    77   147 1   
   157    78   148 1   
   158    79    80 1   
   159    79   149 1   
   160    79   150 1   
   161    80   151 1   
   162    81    82 1   
   163    81   152 1   
   164    81   153 1   
   165    82   154 1   
   166    83    84 1   
   167    83   155 1   
   168    83   156 1   
   169    84   157 1   
   170    85   158 1   
   171    86   159 1   
@<TRIPOS>SUBSTRUCTURE
     1 *           1 TEMP              0 ****  ****    0 ROOT
