@<TRIPOS>MOLECULE
*
   27    29     1     0     0
SMALL
bcc


@<TRIPOS>ATOM
      1 C            4.4100    -2.4120     1.4170 c3         0 *        -0.083600
      2 C1           3.7490    -1.2660     0.6050 c3         0 *        -0.051000
      3 C2           3.6230    -1.5460    -0.9090 c3         0 *        -0.066700
      4 C3           2.8240    -0.3050    -1.4000 c3         0 *        -0.084400
      5 C4           1.8480    -0.0740    -0.2190 c3         0 *        -0.072400
      6 C5           2.2200    -1.1590     0.8110 c3         0 *        -0.103000
      7 C6           1.7350    -2.4680     0.1910 c3         0 *         0.380600
      8 O            0.7890    -3.1290     0.5150 os         0 *        -0.424600
      9 C7           2.6600    -2.7540    -0.9650 c3         0 *        -0.135400
     10 C8           1.7210    -0.8730     2.2420 c3         0 *        -0.069100
     11 C9           4.5670    -0.0040     0.9960 c3         0 *        -0.083600
     12 H1           4.4350    -2.1550     2.4770 hc         0 *         0.039200
     13 H2           5.4340    -2.5620     1.0730 hc         0 *         0.039200
     14 H3           3.8800    -3.3590     1.3300 hc         0 *         0.039200
     15 H            4.5660    -1.7070    -1.4350 hc         0 *         0.073700
     16 H4           3.4790     0.5550    -1.5460 hc         0 *         0.048200
     17 H9           2.2870    -0.5120    -2.3280 hc         0 *         0.048200
     18 H5           0.8100    -0.1880    -0.5380 hc         0 *         0.053200
     19 H10          1.9800     0.9260     0.1970 hc         0 *         0.053200
     20 H6           3.1730    -3.6930    -0.8170 hc         0 *         0.074700
     21 H11          2.1200    -2.8240    -1.8990 hc         0 *         0.074700
     22 H7           2.1240     0.0660     2.6200 hc         0 *         0.044700
     23 H12          2.0140    -1.6760     2.9190 hc         0 *         0.044700
     24 H14          0.6330    -0.8100     2.2530 hc         0 *         0.044700
     25 H8           5.6060    -0.1350     0.6890 hc         0 *         0.039200
     26 H13          4.5410     0.1400     2.0760 hc         0 *         0.039200
     27 H15          4.1990     0.9100     0.5360 hc         0 *         0.039200
@<TRIPOS>BOND
     1     1     2 1   
     2     1    12 1   
     3     1    13 1   
     4     1    14 1   
     5     2     3 1   
     6     2     6 1   
     7     2    11 1   
     8     3     4 1   
     9     3     9 1   
    10     3    15 1   
    11     4     5 1   
    12     4    16 1   
    13     4    17 1   
    14     5     6 1   
    15     5    18 1   
    16     5    19 1   
    17     6     7 1   
    18     6    10 1   
    19     7     8 1   
    20     7     8 1   
    21     7     9 1   
    22     9    20 1   
    23     9    21 1   
    24    10    22 1   
    25    10    23 1   
    26    10    24 1   
    27    11    25 1   
    28    11    26 1   
    29    11    27 1   
@<TRIPOS>SUBSTRUCTURE
     1 *           1 TEMP              0 ****  ****    0 ROOT
