@<TRIPOS>MOLECULE
*
  157   168     1     0     0
SMALL
bcc


@<TRIPOS>ATOM
      1 O            0.6330   -10.8360     1.6800 oh         0 *        -0.600800
      2 C            1.3070    -9.5880     1.5810 c3         0 *         0.118150
      3 C1           1.0740    -8.9260     0.2130 c3         0 *         0.113350
      4 O1           1.5960    -7.4230     0.2550 os         0 *        -0.445600
      5 C2           2.8110    -7.0620    -0.7380 c3         0 *         0.310700
      6 O2           2.9180    -5.6080    -0.8220 os         0 *        -0.432800
      7 C3           2.5580    -4.7570     0.3420 c3         0 *         0.118100
      8 C4           2.9640    -3.3040     0.0030 c3         0 *         0.113350
      9 C5           2.3060    -2.1980     0.8480 c3         0 *         0.118150
     10 O3           0.8900    -2.2790     0.8020 oh         0 *        -0.600800
     11 O4           4.4230    -3.1530     0.0190 os         0 *        -0.445600
     12 C6           5.1220    -3.5770     1.2130 c3         0 *         0.310700
     13 O5           6.5340    -3.5640     0.9010 os         0 *        -0.432800
     14 C7           7.2070    -2.2650     0.8170 c3         0 *         0.118100
     15 C8           7.8230    -2.1110    -0.5990 c3         0 *         0.113350
     16 C9           6.7640    -1.7160    -1.6400 c3         0 *         0.118150
     17 O6           6.1210    -0.4850    -1.3220 oh         0 *        -0.600800
     18 O7           8.9510    -1.1660    -0.6650 os         0 *        -0.445600
     19 C10          9.9300    -1.2590     0.3830 c3         0 *         0.310700
     20 O8          10.5370    -2.5780     0.2710 os         0 *        -0.432800
     21 C11         11.5890    -2.7540    -0.7220 c3         0 *         0.145100
     22 C12         11.6380    -4.2390    -1.1070 c3         0 *         0.082600
     23 C13         10.3490    -4.8220    -1.6950 c3         0 *         0.124900
     24 O9          10.6050    -6.1590    -2.1180 oh         0 *        -0.600800
     25 O10         12.7640    -4.5140    -1.9950 os         0 *        -0.438600
     26 C14         14.0710    -4.2510    -1.4260 c3         0 *         0.309900
     27 O11         14.2720    -5.1350    -0.2620 os         0 *        -0.441600
     28 C15         13.9310    -6.5600    -0.4310 c3         0 *         0.129100
     29 C16         13.5290    -7.2410     0.9080 c3         0 *         0.108100
     30 C17         12.3130    -6.6410     1.6350 c3         0 *         0.100400
     31 O12         12.4530    -5.2530     2.0300 os         0 *        -0.340600
     32 C18         13.0500    -4.7550     3.1630 c3         0 *         0.145800
     33 C19         13.8830    -5.5330     3.9690 c3         0 *        -0.156700
     34 C20         14.4730    -4.9620     5.0930 c3         0 *        -0.048700
     35 C21         14.2250    -3.6220     5.4070 c3         0 *        -0.021600
     36 CL          14.9660    -2.9130     6.8010 cl         0 *        -0.090400
     37 C22         13.3820    -2.8540     4.6010 c3         0 *        -0.056700
     38 C23         12.7900    -3.4230     3.4790 c3         0 *        -0.115700
     39 O13         13.2360    -8.6680     0.6980 os         0 *        -0.449600
     40 C24         13.2660    -9.1370    -0.6660 c3         0 *         0.292900
     41 O14         12.8390   -10.5110    -0.7090 os         0 *        -0.379600
     42 C25         11.4830   -10.8500    -0.1650 c3         0 *         0.130100
     43 C26         10.4120    -9.7410    -0.4110 c3         0 *         0.082600
     44 C27          9.9790    -9.6960    -1.8890 c3         0 *         0.124900
     45 O15          9.1170    -8.6010    -2.1650 oh         0 *        -0.600800
     46 O16          9.2570    -9.8890     0.4630 os         0 *        -0.427600
     47 C28          8.9880   -11.2120     0.9340 c3         0 *         0.310700
     48 O17          7.7080   -11.1830     1.6010 os         0 *        -0.432800
     49 C29          6.5600   -10.9120     0.7180 c3         0 *         0.118100
     50 C30          5.4360   -10.1600     1.4470 c3         0 *         0.113350
     51 C31          6.0240    -8.9590     2.2050 c3         0 *         0.118150
     52 O18          5.0160    -8.0870     2.6870 oh         0 *        -0.600800
     53 O19          4.4140    -9.7330     0.4650 os         0 *        -0.445600
     54 C32          4.0340   -10.6910    -0.5690 c3         0 *         0.310700
     55 O20          2.5770   -10.7400    -0.6360 os         0 *        -0.432800
     56 C33          1.8290    -9.5160    -0.9900 c3         0 *         0.118100
     57 C34          2.0460    -9.1020    -2.4540 c3         0 *         0.099600
     58 O21          2.8530    -9.9930    -3.2230 oh         0 *        -0.603050
     59 C35          2.7340    -7.6700    -2.2600 c3         0 *         0.114600
     60 O22          2.0380    -6.7480    -3.0950 oh         0 *        -0.597400
     61 C36          4.5470   -12.1320    -0.3150 c3         0 *         0.114600
     62 O23          3.7360   -12.7880     0.6600 oh         0 *        -0.597400
     63 C37          6.0270   -12.2200     0.1080 c3         0 *         0.099600
     64 O24          6.8490   -12.6430    -0.9790 oh         0 *        -0.603050
     65 C38         10.1360   -11.7010     1.8470 c3         0 *         0.098100
     66 O25          9.9480   -11.2700     3.1950 oh         0 *        -0.597400
     67 C39         11.5200   -11.2260     1.3390 c3         0 *         0.122100
     68 O26         12.4720   -12.2510     1.5990 oh         0 *        -0.584800
     69 C40         14.6520    -8.8740    -1.2890 c3         0 *         0.102100
     70 O27         15.6450    -9.7440    -0.7530 oh         0 *        -0.583800
     71 C41         15.0690    -7.3930    -1.0840 c3         0 *         0.088100
     72 O28         15.4800    -6.8530    -2.3350 oh         0 *        -0.600800
     73 C42         14.1650    -2.7640    -1.0220 c3         0 *         0.096100
     74 O29         15.3850    -2.4980    -0.3270 oh         0 *        -0.590800
     75 C43         12.9670    -2.3330    -0.1490 c3         0 *         0.085100
     76 O30         13.0400    -0.9220     0.0080 oh         0 *        -0.605800
     77 C44          9.2390    -1.0600     1.7450 c3         0 *         0.114600
     78 O31         10.1630    -1.0120     2.8320 oh         0 *        -0.597400
     79 C45          8.2390    -2.1990     1.9630 c3         0 *         0.099600
     80 O32          7.5810    -2.0470     3.2220 oh         0 *        -0.603050
     81 C46          4.7230    -5.0020     1.6690 c3         0 *         0.114600
     82 O33          5.3770    -5.9970     0.8790 oh         0 *        -0.597400
     83 C47          3.2050    -5.2190     1.6750 c3         0 *         0.099600
     84 O34          2.6390    -4.5610     2.8040 oh         0 *        -0.603050
     85 H            0.8480   -11.2450     2.5250 ho         0 *         0.411167
     86 H1           0.9210    -8.9160     2.3490 h1         0 *         0.062783
     87 H2           2.3740    -9.7150     1.7570 h1         0 *         0.062783
     88 H3          -0.0110    -8.9010     0.0490 h1         0 *         0.089200
     89 H4           3.7100    -7.4440    -0.2700 h2         0 *         0.088900
     90 H5           1.4730    -4.8130     0.4330 h1         0 *         0.088500
     91 H6           2.6630    -3.1250    -1.0290 h1         0 *         0.089200
     92 H61          2.6270    -1.2350     0.4480 h1         0 *         0.062783
     93 H67          2.6460    -2.2630     1.8810 h1         0 *         0.062783
     94 H7           0.5100    -1.5320     1.2760 ho         0 *         0.411167
     95 H8           4.9150    -2.8660     2.0040 h2         0 *         0.088900
     96 H9           6.4730    -1.4730     0.9720 h1         0 *         0.088500
     97 H10          8.2300    -3.0780    -0.8870 h1         0 *         0.089200
     98 H62          6.0230    -2.5130    -1.7150 h1         0 *         0.062783
     99 H68          7.2600    -1.6220    -2.6070 h1         0 *         0.062783
    100 H11          5.5140    -0.2510    -2.0300 ho         0 *         0.411167
    101 H12         10.6800    -0.4920     0.2350 h2         0 *         0.088900
    102 H13         11.3470    -2.1550    -1.6020 h1         0 *         0.088500
    103 H14         11.8170    -4.7900    -0.1930 h1         0 *         0.089700
    104 H63         10.0320    -4.2160    -2.5450 h1         0 *         0.062783
    105 H69          9.5690    -4.8180    -0.9320 h1         0 *         0.062783
    106 H15         11.3530    -6.0860    -2.7290 ho         0 *         0.411167
    107 H16         14.8270    -4.4770    -2.1670 h2         0 *         0.118700
    108 H17         13.0660    -6.6040    -1.0870 h1         0 *         0.076700
    109 H18         14.3870    -7.1970     1.5790 h1         0 *         0.097700
    110 H64         12.1050    -7.2380     2.5230 h1         0 *         0.078700
    111 H70         11.4470    -6.7190     0.9780 h1         0 *         0.078700
    112 H19         14.0690    -6.5480     3.7360 hc         0 *         0.109700
    113 H20         15.1100    -5.5340     5.7160 hc         0 *         0.109700
    114 H21         13.1950    -1.8410     4.8490 hc         0 *         0.109700
    115 H22         12.1400    -2.8520     2.8670 hc         0 *         0.129700
    116 H23         12.5450    -8.5680    -1.2370 h2         0 *         0.049700
    117 H24         11.1790   -11.7480    -0.7040 h1         0 *         0.093700
    118 H25         10.8140    -8.7680    -0.1420 h1         0 *         0.078700
    119 H65          9.4530   -10.6220    -2.1280 h1         0 *         0.062783
    120 H71         10.8610    -9.6290    -2.5260 h1         0 *         0.062783
    121 H26          9.5860    -7.7530    -2.0700 ho         0 *         0.411167
    122 H27          8.9160   -11.8620     0.0710 h2         0 *         0.088900
    123 H28          6.9040   -10.2650    -0.0920 h1         0 *         0.088500
    124 H29          4.9500   -10.8220     2.1660 h1         0 *         0.089200
    125 H66          6.6870    -8.4060     1.5380 h1         0 *         0.062783
    126 H72          6.6140    -9.3270     3.0460 h1         0 *         0.062783
    127 H30          4.9270    -7.3960     2.0090 ho         0 *         0.411167
    128 H31          4.4420   -10.3320    -1.5040 h2         0 *         0.088900
    129 H32          1.2380    -8.6570    -1.2310 h1         0 *         0.088500
    130 H33          1.0930    -8.9850    -2.9880 h1         0 *         0.078950
    131 H34          2.3990   -10.8410    -3.2690 ho         0 *         0.417167
    132 H35          3.7630    -7.7310    -2.6150 h1         0 *         0.071500
    133 H36          2.2450    -5.8700    -2.7430 ho         0 *         0.429000
    134 H37          4.4170   -12.6680    -1.2550 h1         0 *         0.071500
    135 H38          2.8490   -12.4000     0.5720 ho         0 *         0.429000
    136 H39          6.0920   -12.9800     0.8900 h1         0 *         0.078950
    137 H40          6.6150   -13.5480    -1.2090 ho         0 *         0.417167
    138 H41         10.0980   -12.7910     1.8270 h1         0 *         0.071500
    139 H42          8.9970   -11.1340     3.3050 ho         0 *         0.429000
    140 H43         11.8000   -10.3320     1.8980 h1         0 *         0.086700
    141 H44         12.6000   -12.2940     2.5530 ho         0 *         0.417167
    142 H45         14.5520    -9.0810    -2.3550 h1         0 *         0.093700
    143 H46         15.1960   -10.5600    -0.4850 ho         0 *         0.429000
    144 H47         15.9210    -7.3670    -0.4000 h1         0 *         0.071700
    145 H48         16.3220    -7.2560    -2.5740 ho         0 *         0.419000
    146 H49         14.1380    -2.1800    -1.9430 h1         0 *         0.100700
    147 H50         15.5230    -3.2200     0.3010 ho         0 *         0.422000
    148 H51         13.0800    -2.8100     0.8230 h1         0 *         0.076700
    149 H52         13.9450    -0.7140     0.2730 ho         0 *         0.417167
    150 H53          8.6940    -0.1160     1.6990 h1         0 *         0.071500
    151 H54          9.6340    -1.0940     3.6350 ho         0 *         0.429000
    152 H55          8.8000    -3.1360     1.9690 h1         0 *         0.078950
    153 H56          7.2610    -2.9140     3.4920 ho         0 *         0.417167
    154 H57          5.0850    -5.1130     2.6910 h1         0 *         0.071500
    155 H58          6.0790    -5.5240     0.4080 ho         0 *         0.429000
    156 H59          3.0310    -6.2860     1.8100 h1         0 *         0.078950
    157 H60          1.7310    -4.8690     2.9150 ho         0 *         0.417167
@<TRIPOS>BOND
     1     1     2 1   
     2     1    85 1   
     3     2     3 1   
     4     2    86 1   
     5     2    87 1   
     6     3     4 1   
     7     3    56 1   
     8     3    88 1   
     9     4     5 1   
    10     5     6 1   
    11     5    59 1   
    12     5    89 1   
    13     6     7 1   
    14     7     8 1   
    15     7    83 1   
    16     7    90 1   
    17     8     9 1   
    18     8    11 1   
    19     8    91 1   
    20     9    10 1   
    21     9    92 1   
    22     9    93 1   
    23    10    94 1   
    24    11    12 1   
    25    12    13 1   
    26    12    81 1   
    27    12    95 1   
    28    13    14 1   
    29    14    15 1   
    30    14    79 1   
    31    14    96 1   
    32    15    16 1   
    33    15    18 1   
    34    15    97 1   
    35    16    17 1   
    36    16    98 1   
    37    16    99 1   
    38    17   100 1   
    39    18    19 1   
    40    19    20 1   
    41    19    77 1   
    42    19   101 1   
    43    20    21 1   
    44    21    22 1   
    45    21    75 1   
    46    21   102 1   
    47    22    23 1   
    48    22    25 1   
    49    22   103 1   
    50    23    24 1   
    51    23   104 1   
    52    23   105 1   
    53    24   106 1   
    54    25    26 1   
    55    26    27 1   
    56    26    73 1   
    57    26   107 1   
    58    27    28 1   
    59    28    29 1   
    60    28    71 1   
    61    28   108 1   
    62    29    30 1   
    63    29    39 1   
    64    29   109 1   
    65    30    31 1   
    66    30   110 1   
    67    30   111 1   
    68    31    32 1   
    69    32    33 1   
    70    32    38 1   
    71    32    38 1   
    72    33    34 1   
    73    33    34 1   
    74    33   112 1   
    75    34    35 1   
    76    34   113 1   
    77    35    36 1   
    78    35    37 1   
    79    35    37 1   
    80    37    38 1   
    81    37   114 1   
    82    38   115 1   
    83    39    40 1   
    84    40    41 1   
    85    40    69 1   
    86    40   116 1   
    87    41    42 1   
    88    42    43 1   
    89    42    67 1   
    90    42   117 1   
    91    43    44 1   
    92    43    46 1   
    93    43   118 1   
    94    44    45 1   
    95    44   119 1   
    96    44   120 1   
    97    45   121 1   
    98    46    47 1   
    99    47    48 1   
   100    47    65 1   
   101    47   122 1   
   102    48    49 1   
   103    49    50 1   
   104    49    63 1   
   105    49   123 1   
   106    50    51 1   
   107    50    53 1   
   108    50   124 1   
   109    51    52 1   
   110    51   125 1   
   111    51   126 1   
   112    52   127 1   
   113    53    54 1   
   114    54    55 1   
   115    54    61 1   
   116    54   128 1   
   117    55    56 1   
   118    56    57 1   
   119    56   129 1   
   120    57    58 1   
   121    57    59 1   
   122    57   130 1   
   123    58   131 1   
   124    59    60 1   
   125    59   132 1   
   126    60   133 1   
   127    61    62 1   
   128    61    63 1   
   129    61   134 1   
   130    62   135 1   
   131    63    64 1   
   132    63   136 1   
   133    64   137 1   
   134    65    66 1   
   135    65    67 1   
   136    65   138 1   
   137    66   139 1   
   138    67    68 1   
   139    67   140 1   
   140    68   141 1   
   141    69    70 1   
   142    69    71 1   
   143    69   142 1   
   144    70   143 1   
   145    71    72 1   
   146    71   144 1   
   147    72   145 1   
   148    73    74 1   
   149    73    75 1   
   150    73   146 1   
   151    74   147 1   
   152    75    76 1   
   153    75   148 1   
   154    76   149 1   
   155    77    78 1   
   156    77    79 1   
   157    77   150 1   
   158    78   151 1   
   159    79    80 1   
   160    79   152 1   
   161    80   153 1   
   162    81    82 1   
   163    81    83 1   
   164    81   154 1   
   165    82   155 1   
   166    83    84 1   
   167    83   156 1   
   168    84   157 1   
@<TRIPOS>SUBSTRUCTURE
     1 *           1 TEMP              0 ****  ****    0 ROOT
