@<TRIPOS>MOLECULE
*
   41    49     1     0     0
SMALL
bcc


@<TRIPOS>ATOM
      1 C           -0.3710     2.6150    -1.8510 c3         0 *         0.084600
      2 N           -1.0450     2.0460    -0.6160 n4         0 *        -0.695400
      3 C1          -2.4770     1.6000    -0.8670 c3         0 *         0.084600
      4 C2          -0.8840     2.9050     0.6090 c3         0 *         0.121800
      5 C3          -0.9130     2.1330     1.9320 c3         0 *        -0.122400
      6 C4           0.2880     1.1880     2.1190 c3         0 *         0.218800
      7 N1           0.3770     0.1230     1.0930 n3         0 *        -0.766600
      8 C5           1.5640    -0.0100     0.2920 c3         0 *         0.225700
      9 C6           2.8120     0.2970     0.8350 c3         0 *        -0.118700
     10 C7           3.9550     0.2460     0.0370 c3         0 *        -0.041200
     11 C8           3.8570    -0.1270    -1.2980 c3         0 *        -0.096200
     12 C9           2.6200    -0.4710    -1.8400 c3         0 *        -0.024700
     13 C10          1.4720    -0.4340    -1.0510 c3         0 *        -0.132900
     14 S           -0.0520    -0.9280    -1.7590 ss         0 *        -0.051200
     15 C11         -0.9920    -1.3500    -0.3420 c3         0 *        -0.132900
     16 C12         -2.0780    -2.2110    -0.4920 c3         0 *        -0.024700
     17 C13         -2.8460    -2.5730     0.6130 c3         0 *        -0.096200
     18 C14         -2.5290    -2.0820     1.8740 c3         0 *        -0.041200
     19 C15         -1.4490    -1.2160     2.0380 c3         0 *        -0.118700
     20 C16         -0.6890    -0.8290     0.9330 c3         0 *         0.225700
     21 H1           0.6820     2.8320    -1.7060 hx         0 *         0.098367
     22 H2          -0.8110     3.5420    -2.1980 hx         0 *         0.098367
     23 H3          -0.4030     1.9460    -2.7030 hx         0 *         0.098367
     24 H           -0.5260     1.1870    -0.3820 hn         0 *         0.488800
     25 H4          -2.9220     1.0870    -0.0220 hx         0 *         0.098367
     26 H8          -2.5710     0.9070    -1.6940 hx         0 *         0.098367
     27 H12         -3.1520     2.4160    -1.0970 hx         0 *         0.098367
     28 H5           0.0470     3.4610     0.5820 hx         0 *         0.094200
     29 H9          -1.6380     3.6830     0.6500 hx         0 *         0.094200
     30 H6          -0.8980     2.8590     2.7450 hc         0 *         0.084200
     31 H10         -1.8440     1.5710     2.0060 hc         0 *         0.084200
     32 H7           0.2640     0.7470     3.1060 h1         0 *         0.071700
     33 H11          1.1820     1.7960     2.1190 h1         0 *         0.071700
     34 H13          2.9080     0.5550     1.8570 hc         0 *         0.108200
     35 H14          4.9020     0.4840     0.4500 hc         0 *         0.115200
     36 H15          4.7290    -0.1640    -1.9010 hc         0 *         0.118700
     37 H16          2.5500    -0.7770    -2.8520 hc         0 *         0.118700
     38 H17         -2.3090    -2.6010    -1.4500 hc         0 *         0.118700
     39 H18         -3.6660    -3.2360     0.4950 hc         0 *         0.118700
     40 H19         -3.1070    -2.3760     2.7140 hc         0 *         0.115200
     41 H20         -1.2100    -0.8670     3.0070 hc         0 *         0.108200
@<TRIPOS>BOND
     1     1     2 1   
     2     1    21 1   
     3     1    22 1   
     4     1    23 1   
     5     2     3 1   
     6     2     4 1   
     7     2    24 1   
     8     3    25 1   
     9     3    26 1   
    10     3    27 1   
    11     4     5 1   
    12     4    28 1   
    13     4    29 1   
    14     5     6 1   
    15     5    30 1   
    16     5    31 1   
    17     6     7 1   
    18     6    32 1   
    19     6    33 1   
    20     7     8 1   
    21     7    20 1   
    22     8     9 1   
    23     8    13 1   
    24     8    13 1   
    25     9    10 1   
    26     9    10 1   
    27     9    34 1   
    28    10    11 1   
    29    10    35 1   
    30    11    12 1   
    31    11    12 1   
    32    11    36 1   
    33    12    13 1   
    34    12    37 1   
    35    13    14 1   
    36    14    15 1   
    37    15    16 1   
    38    15    20 1   
    39    15    20 1   
    40    16    17 1   
    41    16    17 1   
    42    16    38 1   
    43    17    18 1   
    44    17    39 1   
    45    18    19 1   
    46    18    19 1   
    47    18    40 1   
    48    19    20 1   
    49    19    41 1   
@<TRIPOS>SUBSTRUCTURE
     1 *           1 TEMP              0 ****  ****    0 ROOT
