@<TRIPOS>MOLECULE
*
   54    63     1     0     0
SMALL
bcc


@<TRIPOS>ATOM
      1 C           16.4180    -4.3220    -0.0250 c3         0 *         0.083100
      2 N           14.9780    -4.0890    -0.5090 n4         0 *        -0.683400
      3 C1          14.3620    -2.7790     0.0540 c3         0 *         0.074300
      4 C2          12.8500    -2.5560    -0.2640 c3         0 *         0.082800
      5 N1          11.9200    -3.7780    -0.0040 n4         0 *        -0.702400
      6 C3          12.5410    -5.0870    -0.5650 c3         0 *         0.082800
      7 C4          14.0540    -5.3080    -0.2450 c3         0 *         0.074300
      8 C5          10.4890    -3.5540    -0.4850 c3         0 *         0.115800
      9 C6           9.7290    -2.4590     0.2640 c3         0 *        -0.114400
     10 C7           8.3050    -2.2510    -0.2760 c3         0 *         0.179800
     11 N2           7.5330    -1.2450     0.4570 n3         0 *        -0.667600
     12 C8           8.1090     0.0600     0.4730 c3         0 *         0.164200
     13 C9           8.9250     0.4200     1.5400 c3         0 *        -0.067700
     14 C10          9.5730     1.6560     1.5310 c3         0 *        -0.052700
     15 C11          9.3950     2.5270     0.4600 c3         0 *        -0.061700
     16 C12          8.5500     2.1830    -0.5960 c3         0 *        -0.034700
     17 C13          7.8800     0.9610    -0.5850 c3         0 *        -0.139900
     18 S            6.7340     0.5810    -1.8580 ss         0 *         0.145800
     19 C14          5.6850    -0.5390    -1.0050 c3         0 *        -0.070900
     20 C15          6.1620    -1.2930     0.0850 c3         0 *         0.154200
     21 C16          5.3120    -2.1370     0.7880 c3         0 *        -0.079700
     22 C17          3.9690    -2.2690     0.4060 c3         0 *        -0.234000
     23 C18          3.5070    -1.5440    -0.7000 c3         0 *        -0.018700
     24 C19          4.3580    -0.6860    -1.3980 c3         0 *        -0.069700
     25 C20          3.0380    -3.2130     1.1730 c3         0 *         0.688900
     26 F            1.7410    -2.8710     1.0680 f          0 *        -0.248300
     27 F1           3.3130    -3.2530     2.4890 f          0 *        -0.248300
     28 F2           3.1370    -4.4750     0.7260 f          0 *        -0.248300
     29 H1          17.0940    -3.5060    -0.2560 hx         0 *         0.125700
     30 H2          16.8860    -5.2000    -0.4570 hx         0 *         0.125700
     31 H3          16.5020    -4.4600     1.0480 hx         0 *         0.125700
     32 H           15.0490    -3.9780    -1.5200 hn         0 *         0.460800
     33 H4          14.4650    -2.7340     1.1330 hx         0 *         0.150950
     34 H11         14.9040    -1.9000    -0.2780 hx         0 *         0.150950
     35 H5          12.7920    -2.2370    -1.2990 hx         0 *         0.140200
     36 H12         12.5250    -1.6750     0.2790 hx         0 *         0.140200
     37 H18         11.8450    -3.8880     1.0060 hn         0 *         0.483800
     38 H6          12.0010    -5.9680    -0.2330 hx         0 *         0.140200
     39 H13         12.4410    -5.1330    -1.6440 hx         0 *         0.140200
     40 H7          14.3820    -6.1910    -0.7840 hx         0 *         0.150950
     41 H14         14.1120    -5.6220     0.7920 hx         0 *         0.150950
     42 H8          10.4530    -3.3200    -1.5440 hx         0 *         0.112700
     43 H15          9.8980    -4.4620    -0.4120 hx         0 *         0.112700
     44 H9           9.6580    -2.7190     1.3200 hc         0 *         0.085200
     45 H16         10.2720    -1.5200     0.1620 hc         0 *         0.085200
     46 H10          7.7720    -3.1940    -0.2470 h1         0 *         0.074700
     47 H17          8.3430    -1.9750    -1.3230 h1         0 *         0.074700
     48 H19          9.0460    -0.2420     2.3570 hc         0 *         0.109700
     49 H20         10.1940     1.9370     2.3430 hc         0 *         0.122700
     50 H21          9.8910     3.4650     0.4540 hc         0 *         0.126700
     51 H22          8.3960     2.8570    -1.3990 hc         0 *         0.123700
     52 H23          5.6920    -2.6790     1.6170 hc         0 *         0.104700
     53 H24          2.4980    -1.6370    -1.0160 hc         0 *         0.132700
     54 H25          3.9970    -0.1330    -2.2270 hc         0 *         0.141700
@<TRIPOS>BOND
     1     1     2 1   
     2     1    29 1   
     3     1    30 1   
     4     1    31 1   
     5     2     3 1   
     6     2     7 1   
     7     2    32 1   
     8     3     4 1   
     9     3    33 1   
    10     3    34 1   
    11     4     5 1   
    12     4    35 1   
    13     4    36 1   
    14     5     6 1   
    15     5     8 1   
    16     5    37 1   
    17     6     7 1   
    18     6    38 1   
    19     6    39 1   
    20     7    40 1   
    21     7    41 1   
    22     8     9 1   
    23     8    42 1   
    24     8    43 1   
    25     9    10 1   
    26     9    44 1   
    27     9    45 1   
    28    10    11 1   
    29    10    46 1   
    30    10    47 1   
    31    11    12 1   
    32    11    20 1   
    33    12    13 1   
    34    12    17 1   
    35    12    17 1   
    36    13    14 1   
    37    13    14 1   
    38    13    48 1   
    39    14    15 1   
    40    14    49 1   
    41    15    16 1   
    42    15    16 1   
    43    15    50 1   
    44    16    17 1   
    45    16    51 1   
    46    17    18 1   
    47    18    19 1   
    48    19    20 1   
    49    19    24 1   
    50    19    24 1   
    51    20    21 1   
    52    20    21 1   
    53    21    22 1   
    54    21    52 1   
    55    22    23 1   
    56    22    23 1   
    57    22    25 1   
    58    23    24 1   
    59    23    53 1   
    60    24    54 1   
    61    25    26 1   
    62    25    27 1   
    63    25    28 1   
@<TRIPOS>SUBSTRUCTURE
     1 *           1 TEMP              0 ****  ****    0 ROOT
