@<TRIPOS>MOLECULE
*
   27    29     1     0     0
SMALL
bcc


@<TRIPOS>ATOM
      1 C            4.1970    -2.4520     1.4140 c3         0 *        -0.083600
      2 C1           3.7320    -1.2860     0.5010 c3         0 *        -0.051000
      3 C2           4.3930    -0.0270     1.1260 c3         0 *        -0.083600
      4 C3           3.9970    -1.5100    -1.0050 c3         0 *        -0.066700
      5 C4           3.3170    -0.2640    -1.6410 c3         0 *        -0.084400
      6 C5           2.0690    -0.0950    -0.7380 c3         0 *        -0.072400
      7 C6           2.1980    -1.2120     0.3170 c3         0 *        -0.103000
      8 C7           1.3480    -0.9870     1.5840 c3         0 *        -0.069100
      9 C8           1.9170    -2.5030    -0.4470 c3         0 *         0.380600
     10 O            0.9380    -3.1940    -0.3910 os         0 *        -0.424600
     11 C9           3.1090    -2.7310    -1.3420 c3         0 *        -0.135400
     12 H1           5.2780    -2.5710     1.3340 hc         0 *         0.039200
     13 H2           3.7300    -3.4040     1.1650 hc         0 *         0.039200
     14 H3           3.9480    -2.2360     2.4540 hc         0 *         0.039200
     15 H4           4.0940     0.0740     2.1710 hc         0 *         0.039200
     16 H9           4.1260     0.8980     0.6210 hc         0 *         0.039200
     17 H14          5.4780    -0.1270     1.0850 hc         0 *         0.039200
     18 H            5.0460    -1.6370    -1.2800 hc         0 *         0.073700
     19 H5           3.9670     0.6110    -1.5860 hc         0 *         0.048200
     20 H10          3.0380    -0.4430    -2.6810 hc         0 *         0.048200
     21 H6           1.1490    -0.2150    -1.3140 hc         0 *         0.053200
     22 H11          2.0650     0.8910    -0.2710 hc         0 *         0.053200
     23 H7           1.6160    -0.0540     2.0790 hc         0 *         0.044700
     24 H12          1.4840    -1.8070     2.2890 hc         0 *         0.044700
     25 H15          0.2900    -0.9450     1.3220 hc         0 *         0.044700
     26 H8           3.5930    -3.6660    -1.1010 hc         0 *         0.074700
     27 H13          2.8230    -2.7720    -2.3830 hc         0 *         0.074700
@<TRIPOS>BOND
     1     1     2 1   
     2     1    12 1   
     3     1    13 1   
     4     1    14 1   
     5     2     3 1   
     6     2     4 1   
     7     2     7 1   
     8     3    15 1   
     9     3    16 1   
    10     3    17 1   
    11     4     5 1   
    12     4    11 1   
    13     4    18 1   
    14     5     6 1   
    15     5    19 1   
    16     5    20 1   
    17     6     7 1   
    18     6    21 1   
    19     6    22 1   
    20     7     8 1   
    21     7     9 1   
    22     8    23 1   
    23     8    24 1   
    24     8    25 1   
    25     9    10 1   
    26     9    10 1   
    27     9    11 1   
    28    11    26 1   
    29    11    27 1   
@<TRIPOS>SUBSTRUCTURE
     1 *           1 TEMP              0 ****  ****    0 ROOT
