@<TRIPOS>MOLECULE
*
  210   217     1     0     0
SMALL
bcc


@<TRIPOS>ATOM
      1 C           -2.0700     0.9180     1.0530 c3         0 *         0.115971
      2 C3          -1.1180    -0.2940     1.2090 c3         0 *         0.128243
      3 C4          -1.9220    -1.5780     0.8790 c3         0 *         0.102671
      4 C5          -1.2270    -2.8980     1.3180 c3         0 *         0.132100
      5 C6          -0.7040    -2.7530     2.7660 c3         0 *         0.099957
      6 C7           0.1990    -1.5060     2.9240 c3         0 *         0.309757
      7 O           -0.5530    -0.3280     2.5690 os         0 *        -0.433457
      8 O1           1.3920    -1.5480     2.1130 os         0 *        -0.400743
      9 C8           2.6750    -1.0940     2.6830 c3         0 *         0.102671
     10 C9           2.7490     0.4580     2.6910 c3         0 *         0.128243
     11 O2           4.0360     1.0010     2.1500 os         0 *        -0.433457
     12 C10          4.5580     0.4950     0.8660 c3         0 *         0.309757
     13 C11          4.0560    -0.9350     0.5440 c3         0 *         0.099957
     14 C12          3.8870    -1.6630     1.8940 c3         0 *         0.132100
     15 O3           4.0460    -3.0880     1.8200 os         0 *        -0.406029
     16 O4           2.8400    -0.9180    -0.2250 os         0 *        -0.400029
     17 C13          3.0100    -0.9380    -1.6340 c3         0 *         0.109557
     18 O5           4.2940     1.4590    -0.1910 os         0 *        -0.400743
     19 C14          4.4040     2.8900     0.1170 c3         0 *         0.102671
     20 C15          3.0630     3.4450     0.6590 c3         0 *         0.128243
     21 O6           3.0680     4.9080     0.8180 os         0 *        -0.433457
     22 C16          3.6070     5.7240    -0.2640 c3         0 *         0.309757
     23 C17          4.9970     5.2120    -0.7210 c3         0 *         0.099957
     24 C18          5.1150     3.6940    -1.0080 c3         0 *         0.132100
     25 O7           4.9810     3.2450    -2.3700 os         0 *        -0.406029
     26 O8           5.7290     6.1100    -1.5770 os         0 *        -0.400029
     27 C19          5.2500     6.2660    -2.9080 c3         0 *         0.109557
     28 O9           2.5760     5.8620    -1.2770 os         0 *        -0.400743
     29 C20          1.2530     6.3250    -0.7810 c3         0 *         0.102671
     30 C21          0.1100     6.1360    -1.8070 c3         0 *         0.128243
     31 O10         -1.1410     6.8210    -1.4120 os         0 *        -0.433457
     32 C22         -1.2080     7.2600    -0.0290 c3         0 *         0.309757
     33 C23         -0.0980     8.2940     0.3000 c3         0 *         0.099957
     34 C24          1.2940     7.6560     0.0350 c3         0 *         0.132100
     35 O11          2.3830     8.5640    -0.2070 os         0 *        -0.406029
     36 O12         -0.2930     9.6360    -0.2110 os         0 *        -0.400029
     37 C25         -0.9720     9.8000    -1.4510 c3         0 *         0.109557
     38 O13         -2.5450     7.7110     0.2670 os         0 *        -0.400743
     39 C26         -3.5690     6.6720     0.3690 c3         0 *         0.102671
     40 C27         -4.9890     7.2740     0.2700 c3         0 *         0.128243
     41 O14         -6.0070     6.1900     0.2980 os         0 *        -0.433457
     42 C28         -5.6960     5.0110     1.0880 c3         0 *         0.309757
     43 C29         -4.7400     5.3470     2.2640 c3         0 *         0.099957
     44 C30         -3.3870     5.7350     1.6110 c3         0 *         0.132100
     45 O15         -2.3130     6.0640     2.5180 os         0 *        -0.406029
     46 O16         -5.2450     6.3910     3.1250 os         0 *        -0.400029
     47 C31         -6.4460     6.0970     3.8240 c3         0 *         0.109557
     48 O17         -6.9410     4.3390     1.4750 os         0 *        -0.400743
     49 C32         -7.1570     2.9060     1.0960 c3         0 *         0.102671
     50 C33         -5.9390     2.0110     1.4700 c3         0 *         0.128243
     51 O18         -5.9940     0.7120     0.7860 os         0 *        -0.433457
     52 C34         -6.0930     0.7330    -0.6770 c3         0 *         0.309757
     53 C35         -6.5120     2.1160    -1.2620 c3         0 *         0.099957
     54 C36         -7.6510     2.6180    -0.3560 c3         0 *         0.132100
     55 O19         -8.5990     3.4860    -0.9920 os         0 *        -0.406029
     56 O20         -5.4680     3.1060    -1.3390 os         0 *        -0.400029
     57 C37         -4.4280     2.8550    -2.2720 c3         0 *         0.109557
     58 O21         -4.8990     0.1390    -1.2510 os         0 *        -0.400743
     59 C38         -5.1040    -1.1680    -1.9000 c3         0 *         0.102671
     60 C39         -5.3280    -2.2750    -0.8260 c3         0 *         0.128243
     61 O22         -4.1160    -3.0150    -0.4160 os         0 *        -0.433457
     62 C40         -2.8810    -2.7580    -1.1280 c3         0 *         0.309757
     63 O23         -2.2860    -1.5680    -0.5600 os         0 *        -0.400743
     64 C41         -3.1410    -2.6840    -2.6450 c3         0 *         0.099957
     65 C42         -4.0750    -1.5040    -3.0190 c3         0 *         0.132100
     66 O24         -3.4860    -0.3470    -3.6480 os         0 *        -0.406029
     67 O25         -1.9380    -2.8500    -3.4140 os         0 *        -0.400029
     68 C43         -2.1310    -3.0120    -4.8130 c3         0 *         0.109557
     69 C44         -6.4020    -3.2780    -1.2640 c3         0 *         0.115971
     70 O26         -7.6150    -2.6020    -1.5760 os         0 *        -0.418171
     71 C45         -8.6720    -3.4890    -1.9120 c3         0 *         0.110843
     72 C46         -5.8700     1.8210     2.9930 c3         0 *         0.115971
     73 O27         -4.5270     1.9350     3.4440 os         0 *        -0.418171
     74 C2          -4.3890     1.7090     4.8370 c3         0 *         0.110843
     75 C47         -5.1490     8.1200    -1.0110 c3         0 *         0.115971
     76 O28         -6.2320     9.0540    -0.9840 os         0 *        -0.418171
     77 C1          -7.5270     8.4710    -0.9440 c3         0 *         0.110843
     78 C48          0.4730     6.3690    -3.2830 c3         0 *         0.115971
     79 O29          0.7340     7.7240    -3.6240 os         0 *        -0.418171
     80 C49          1.0680     7.8910    -4.9910 c3         0 *         0.110843
     81 C50          1.7440     2.8480     0.1030 c3         0 *         0.115971
     82 O30          1.3410     3.2290    -1.2070 os         0 *        -0.418171
     83 C51          0.2840     2.4150    -1.6980 c3         0 *         0.110843
     84 C52          2.5830     1.0520     4.0990 c3         0 *         0.115971
     85 O31          1.4510     0.5590     4.8030 os         0 *        -0.418171
     86 C53          1.2580     1.1930     6.0580 c3         0 *         0.110843
     87 O32         -0.1470    -3.9810     3.2750 os         0 *        -0.400029
     88 C54          0.2320    -3.9680     4.6450 c3         0 *         0.109557
     89 O33         -0.2480    -3.3020     0.3480 os         0 *        -0.406029
     90 O34         -1.4590     2.2130     1.1210 os         0 *        -0.418171
     91 C55         -1.2040     2.6680     2.4440 c3         0 *         0.110843
     92 C56          2.9820    -3.8100     1.2170 c3         0 *         0.107700
     93 C57          3.6790     3.0870    -2.8930 c3         0 *         0.107700
     94 C58          2.5290     9.0430    -1.5350 c3         0 *         0.107700
     95 C59         -2.4800     7.2350     3.3150 c3         0 *         0.107700
     96 C60         -8.2050     4.8230    -1.2480 c3         0 *         0.107700
     97 C61         -2.3190     0.1880    -3.0320 c3         0 *         0.107700
     98 C62         -0.0440    -4.7050     0.2550 c3         0 *         0.107700
     99 H1          -2.8620     0.8410     1.7980 h1         0 *         0.050843
    100 H2          -2.5520     0.8410     0.0800 h1         0 *         0.050843
    101 H           -0.2840    -0.2070     0.5100 h1         0 *         0.089271
    102 H60         -2.8640    -1.5200     1.4250 h1         0 *         0.068986
    103 H61         -2.0090    -3.6570     1.3450 h1         0 *         0.072129
    104 H62         -1.5800    -2.5340     3.3760 h1         0 *         0.059129
    105 H63          0.4890    -1.4110     3.9600 h2         0 *         0.075129
    106 H64          2.7330    -1.4780     3.7010 h1         0 *         0.068986
    107 H65          1.9470     0.8330     2.0550 h1         0 *         0.089271
    108 H66          5.6330     0.4450     0.9850 h2         0 *         0.075129
    109 H67          4.8370    -1.4420    -0.0210 h1         0 *         0.059129
    110 H68          4.7550    -1.3680     2.4850 h1         0 *         0.072129
    111 H4           3.3020    -4.8340     1.0280 h1         0 *         0.046700
    112 H35          2.6760    -3.3550     0.2740 h1         0 *         0.046700
    113 H3           2.1250    -3.8420     1.8890 h1         0 *         0.046700
    114 H5           2.0260    -0.9210    -2.1050 h1         0 *         0.042271
    115 H36          3.5230    -1.8520    -1.9360 h1         0 *         0.042271
    116 H94          3.5760    -0.0710    -1.9730 h1         0 *         0.042271
    117 H69          5.0930     2.9540     0.9600 h1         0 *         0.068986
    118 H70          3.0430     3.1170     1.6950 h1         0 *         0.089271
    119 H71          3.7770     6.7120     0.1430 h2         0 *         0.075129
    120 H72          5.5500     5.3020     0.2130 h1         0 *         0.059129
    121 H73          6.1720     3.4970    -0.8280 h1         0 *         0.072129
    122 H6           3.7490     2.8520    -3.9550 h1         0 *         0.046700
    123 H37          3.1020     4.0020    -2.7770 h1         0 *         0.046700
    124 H95          3.1810     2.2570    -2.3960 h1         0 *         0.046700
    125 H7           5.8360     7.0410    -3.4020 h1         0 *         0.042271
    126 H38          4.2040     6.5690    -2.9200 h1         0 *         0.042271
    127 H96          5.3700     5.3430    -3.4730 h1         0 *         0.042271
    128 H74          0.9860     5.5840    -0.0290 h1         0 *         0.068986
    129 H75         -0.1480     5.0810    -1.7550 h1         0 *         0.089271
    130 H76         -1.0230     6.3860     0.5820 h2         0 *         0.075129
    131 H77         -0.1600     8.4120     1.3810 h1         0 *         0.059129
    132 H78          1.5570     7.2880     1.0270 h1         0 *         0.072129
    133 H8           3.3640     9.7430    -1.5680 h1         0 *         0.046700
    134 H39          1.6330     9.5620    -1.8640 h1         0 *         0.046700
    135 H97          2.7450     8.2220    -2.2160 h1         0 *         0.046700
    136 H9          -2.0230     9.5290    -1.3530 h1         0 *         0.042271
    137 H40         -0.5160     9.1910    -2.2270 h1         0 *         0.042271
    138 H98         -0.9150    10.8460    -1.7500 h1         0 *         0.042271
    139 H79         -3.4470     6.0520    -0.5210 h1         0 *         0.068986
    140 H80         -5.1620     7.9190     1.1320 h1         0 *         0.089271
    141 H81         -5.1540     4.3510     0.4350 h2         0 *         0.075129
    142 H82         -4.5820     4.4430     2.8490 h1         0 *         0.059129
    143 H83         -3.0410     4.8000     1.1660 h1         0 *         0.072129
    144 H10         -1.5170     7.5190     3.7390 h1         0 *         0.046700
    145 H41         -3.1660     7.0400     4.1390 h1         0 *         0.046700
    146 H99         -2.8600     8.0670     2.7210 h1         0 *         0.046700
    147 H14         -6.6190     6.8700     4.5720 h1         0 *         0.042271
    148 H42         -6.3730     5.1300     4.3240 h1         0 *         0.042271
    149 H100        -7.2940     6.0960     3.1370 h1         0 *         0.042271
    150 H84         -7.9870     2.5930     1.7300 h1         0 *         0.068986
    151 H85         -5.0100     2.4710     1.1380 h1         0 *         0.089271
    152 H86         -6.9150     0.0630    -0.8990 h2         0 *         0.075129
    153 H87         -6.9120     1.9440    -2.2610 h1         0 *         0.059129
    154 H88         -8.2650     1.7270    -0.2160 h1         0 *         0.072129
    155 H15         -8.9060     5.2710    -1.9520 h1         0 *         0.046700
    156 H43         -7.2030     4.8700    -1.6770 h1         0 *         0.046700
    157 H101        -8.2430     5.4030    -0.3270 h1         0 *         0.046700
    158 H16         -3.9180     3.7910    -2.5010 h1         0 *         0.042271
    159 H44         -4.8190     2.4270    -3.1970 h1         0 *         0.042271
    160 H102        -3.7010     2.1780    -1.8310 h1         0 *         0.042271
    161 H89         -6.0410    -1.0390    -2.4420 h1         0 *         0.068986
    162 H90         -5.6940    -1.7990     0.0840 h1         0 *         0.089271
    163 H91         -2.2150    -3.5900    -0.9570 h2         0 *         0.075129
    164 H92         -3.7240    -3.5850    -2.8330 h1         0 *         0.059129
    165 H93         -4.6940    -1.9240    -3.8110 h1         0 *         0.072129
    166 H17         -2.0300     1.1020    -3.5500 h1         0 *         0.046700
    167 H45         -1.4850    -0.5110    -3.0860 h1         0 *         0.046700
    168 H103        -2.5090     0.4220    -1.9890 h1         0 *         0.046700
    169 H18         -1.1630    -3.1770    -5.2860 h1         0 *         0.042271
    170 H46         -2.5750    -2.1150    -5.2480 h1         0 *         0.042271
    171 H104        -2.7700    -3.8730    -5.0130 h1         0 *         0.042271
    172 H19         -6.5650    -3.9780    -0.4430 h1         0 *         0.050843
    173 H47         -6.0450    -3.8310    -2.1330 h1         0 *         0.050843
    174 H20         -9.5670    -2.9100    -2.1430 h1         0 *         0.035986
    175 H48         -8.8930    -4.1510    -1.0730 h1         0 *         0.035986
    176 H105        -8.4060    -4.0850    -2.7870 h1         0 *         0.035986
    177 H24         -6.2760     0.8390     3.2430 h1         0 *         0.050843
    178 H49         -6.4700     2.5890     3.4840 h1         0 *         0.050843
    179 H21         -4.7290     0.7050     5.0940 h1         0 *         0.035986
    180 H22         -4.9650     2.4460     5.4000 h1         0 *         0.035986
    181 H23         -3.3380     1.8020     5.1130 h1         0 *         0.035986
    182 H25         -5.2490     7.4530    -1.8670 h1         0 *         0.050843
    183 H50         -4.2400     8.7040    -1.1550 h1         0 *         0.050843
    184 H11         -7.6420     7.7470    -1.7510 h1         0 *         0.035986
    185 H12         -8.2740     9.2550    -1.0620 h1         0 *         0.035986
    186 H13         -7.6950     7.9790     0.0160 h1         0 *         0.035986
    187 H26         -0.3630     6.0090    -3.8830 h1         0 *         0.050843
    188 H51          1.3470     5.7580    -3.5150 h1         0 *         0.050843
    189 H27          0.2430     7.5600    -5.6240 h1         0 *         0.035986
    190 H52          1.9680     7.3230    -5.2330 h1         0 *         0.035986
    191 H106         1.2560     8.9470    -5.1860 h1         0 *         0.035986
    192 H28          0.9480     3.1200     0.7930 h1         0 *         0.050843
    193 H53          1.8420     1.7620     0.1330 h1         0 *         0.050843
    194 H29         -0.6240     2.5860    -1.1220 h1         0 *         0.035986
    195 H54          0.5550     1.3590    -1.6430 h1         0 *         0.035986
    196 H107         0.0880     2.6710    -2.7390 h1         0 *         0.035986
    197 H30          2.5080     2.1350     3.9950 h1         0 *         0.050843
    198 H55          3.4850     0.8260     4.6690 h1         0 *         0.050843
    199 H31          1.1110     2.2660     5.9230 h1         0 *         0.035986
    200 H56          2.1170     1.0200     6.7080 h1         0 *         0.035986
    201 H108         0.3690     0.7770     6.5340 h1         0 *         0.035986
    202 H32          0.5250    -4.9760     4.9390 h1         0 *         0.042271
    203 H57         -0.6030    -3.6500     5.2710 h1         0 *         0.042271
    204 H109         1.0870    -3.3080     4.8000 h1         0 *         0.042271
    205 H33          0.6850    -4.9030    -0.5300 h1         0 *         0.046700
    206 H58         -0.9760    -5.2110     0.0010 h1         0 *         0.046700
    207 H110         0.3380    -5.1070     1.1930 h1         0 *         0.046700
    208 H34         -0.8510     3.6990     2.4070 h1         0 *         0.035986
    209 H59         -0.4380     2.0580     2.9230 h1         0 *         0.035986
    210 H111        -2.1170     2.6390     3.0390 h1         0 *         0.035986
@<TRIPOS>BOND
     1     1     2 1   
     2     1    90 1   
     3     1    99 1   
     4     1   100 1   
     5     2     3 1   
     6     2     7 1   
     7     2   101 1   
     8     3     4 1   
     9     3    63 1   
    10     3   102 1   
    11     4     5 1   
    12     4    89 1   
    13     4   103 1   
    14     5     6 1   
    15     5    87 1   
    16     5   104 1   
    17     6     7 1   
    18     6     8 1   
    19     6   105 1   
    20     8     9 1   
    21     9    10 1   
    22     9    14 1   
    23     9   106 1   
    24    10    11 1   
    25    10    84 1   
    26    10   107 1   
    27    11    12 1   
    28    12    13 1   
    29    12    18 1   
    30    12   108 1   
    31    13    14 1   
    32    13    16 1   
    33    13   109 1   
    34    14    15 1   
    35    14   110 1   
    36    15    92 1   
    37    16    17 1   
    38    17   114 1   
    39    17   115 1   
    40    17   116 1   
    41    18    19 1   
    42    19    20 1   
    43    19    24 1   
    44    19   117 1   
    45    20    21 1   
    46    20    81 1   
    47    20   118 1   
    48    21    22 1   
    49    22    23 1   
    50    22    28 1   
    51    22   119 1   
    52    23    24 1   
    53    23    26 1   
    54    23   120 1   
    55    24    25 1   
    56    24   121 1   
    57    25    93 1   
    58    26    27 1   
    59    27   125 1   
    60    27   126 1   
    61    27   127 1   
    62    28    29 1   
    63    29    30 1   
    64    29    34 1   
    65    29   128 1   
    66    30    31 1   
    67    30    78 1   
    68    30   129 1   
    69    31    32 1   
    70    32    33 1   
    71    32    38 1   
    72    32   130 1   
    73    33    34 1   
    74    33    36 1   
    75    33   131 1   
    76    34    35 1   
    77    34   132 1   
    78    35    94 1   
    79    36    37 1   
    80    37   136 1   
    81    37   137 1   
    82    37   138 1   
    83    38    39 1   
    84    39    40 1   
    85    39    44 1   
    86    39   139 1   
    87    40    41 1   
    88    40    75 1   
    89    40   140 1   
    90    41    42 1   
    91    42    43 1   
    92    42    48 1   
    93    42   141 1   
    94    43    44 1   
    95    43    46 1   
    96    43   142 1   
    97    44    45 1   
    98    44   143 1   
    99    45    95 1   
   100    46    47 1   
   101    47   147 1   
   102    47   148 1   
   103    47   149 1   
   104    48    49 1   
   105    49    50 1   
   106    49    54 1   
   107    49   150 1   
   108    50    51 1   
   109    50    72 1   
   110    50   151 1   
   111    51    52 1   
   112    52    53 1   
   113    52    58 1   
   114    52   152 1   
   115    53    54 1   
   116    53    56 1   
   117    53   153 1   
   118    54    55 1   
   119    54   154 1   
   120    55    96 1   
   121    56    57 1   
   122    57   158 1   
   123    57   159 1   
   124    57   160 1   
   125    58    59 1   
   126    59    60 1   
   127    59    65 1   
   128    59   161 1   
   129    60    61 1   
   130    60    69 1   
   131    60   162 1   
   132    61    62 1   
   133    62    63 1   
   134    62    64 1   
   135    62   163 1   
   136    64    65 1   
   137    64    67 1   
   138    64   164 1   
   139    65    66 1   
   140    65   165 1   
   141    66    97 1   
   142    67    68 1   
   143    68   169 1   
   144    68   170 1   
   145    68   171 1   
   146    69    70 1   
   147    69   172 1   
   148    69   173 1   
   149    70    71 1   
   150    71   174 1   
   151    71   175 1   
   152    71   176 1   
   153    72    73 1   
   154    72   177 1   
   155    72   178 1   
   156    73    74 1   
   157    74   179 1   
   158    74   180 1   
   159    74   181 1   
   160    75    76 1   
   161    75   182 1   
   162    75   183 1   
   163    76    77 1   
   164    77   184 1   
   165    77   185 1   
   166    77   186 1   
   167    78    79 1   
   168    78   187 1   
   169    78   188 1   
   170    79    80 1   
   171    80   189 1   
   172    80   190 1   
   173    80   191 1   
   174    81    82 1   
   175    81   192 1   
   176    81   193 1   
   177    82    83 1   
   178    83   194 1   
   179    83   195 1   
   180    83   196 1   
   181    84    85 1   
   182    84   197 1   
   183    84   198 1   
   184    85    86 1   
   185    86   199 1   
   186    86   200 1   
   187    86   201 1   
   188    87    88 1   
   189    88   202 1   
   190    88   203 1   
   191    88   204 1   
   192    89    98 1   
   193    90    91 1   
   194    91   208 1   
   195    91   209 1   
   196    91   210 1   
   197    92   111 1   
   198    92   112 1   
   199    92   113 1   
   200    93   122 1   
   201    93   123 1   
   202    93   124 1   
   203    94   133 1   
   204    94   134 1   
   205    94   135 1   
   206    95   144 1   
   207    95   145 1   
   208    95   146 1   
   209    96   155 1   
   210    96   156 1   
   211    96   157 1   
   212    97   166 1   
   213    97   167 1   
   214    97   168 1   
   215    98   205 1   
   216    98   206 1   
   217    98   207 1   
@<TRIPOS>SUBSTRUCTURE
     1 *           1 TEMP              0 ****  ****    0 ROOT
