@<TRIPOS>MOLECULE
*
   52    61     1     0     0
SMALL
bcc


@<TRIPOS>ATOM
      1 C            6.4350     6.3850     0.0310 c3         0 *         0.085100
      2 N            6.3940     4.8780     0.2690 n4         0 *        -0.682400
      3 C1           7.0630     4.0760    -0.8190 c3         0 *         0.110800
      4 C2           7.3300     2.6210    -0.4050 c3         0 *        -0.109400
      5 C3           6.4440     2.1350     0.7590 c3         0 *        -0.101400
      6 C4           5.0390     2.7510     0.6360 c3         0 *        -0.106400
      7 C5           5.0300     4.3000     0.6460 c3         0 *         0.136500
      8 C6           3.8590     4.8560    -0.1860 c3         0 *        -0.111400
      9 C7           2.4730     4.4000     0.3000 c3         0 *         0.187800
     10 N1           1.3650     4.8830    -0.5280 n3         0 *        -0.659600
     11 C8           1.2000     6.3000    -0.5540 c3         0 *         0.159200
     12 C9           1.8540     7.0330    -1.5390 c3         0 *        -0.082700
     13 C10          1.7810     8.4260    -1.5320 c3         0 *        -0.088700
     14 C11          1.0480     9.0800    -0.5470 c3         0 *        -0.074700
     15 C12          0.3620     8.3470     0.4230 c3         0 *        -0.055700
     16 C13          0.4100     6.9540     0.4130 c3         0 *        -0.095900
     17 S           -0.5390     6.0420     1.5720 ss         0 *         0.038800
     18 C14         -0.7450     4.5340     0.6910 c3         0 *        -0.118900
     19 C15          0.1820     4.1280    -0.2870 c3         0 *         0.184200
     20 C16         -0.0110     2.9530    -1.0030 c3         0 *        -0.071700
     21 C17         -1.1230     2.1440    -0.7410 c3         0 *        -0.036900
     22 C18         -2.0360     2.5350     0.2480 c3         0 *        -0.095700
     23 C19         -1.8450     3.7220     0.9570 c3         0 *        -0.031700
     24 S1          -1.3060     0.6660    -1.6680 ss         0 *        -0.105200
     25 C20         -2.9300    -0.0440    -1.2350 c3         0 *        -0.072000
     26 H1           7.4360     6.7750    -0.1110 hx         0 *         0.103700
     27 H2           6.0190     6.9650     0.8480 hx         0 *         0.103700
     28 H3           5.8830     6.6990    -0.8480 hx         0 *         0.103700
     29 H            6.9710     4.7030     1.0840 hn         0 *         0.445800
     30 H4           6.4580     4.0600    -1.7190 hx         0 *         0.101700
     31 H11          7.9970     4.5140    -1.1530 hx         0 *         0.101700
     32 H5           7.1650     1.9880    -1.2790 hc         0 *         0.087700
     33 H12          8.3780     2.5190    -0.1160 hc         0 *         0.087700
     34 H6           6.8880     2.4310     1.7120 hc         0 *         0.075700
     35 H13          6.3780     1.0440     0.7400 hc         0 *         0.075700
     36 H7           4.4150     2.3890     1.4550 hc         0 *         0.088700
     37 H14          4.6010     2.3910    -0.2970 hc         0 *         0.088700
     38 H19          4.8100     4.5830     1.6690 hx         0 *         0.096700
     39 H8           3.8730     5.9410    -0.1260 hc         0 *         0.074200
     40 H15          3.9780     4.5600    -1.2290 hc         0 *         0.074200
     41 H9           2.3170     4.7180     1.3240 h1         0 *         0.054200
     42 H16          2.4370     3.3180     0.3300 h1         0 *         0.054200
     43 H20          2.4010     6.5290    -2.2920 hc         0 *         0.092700
     44 H21          2.2790     8.9890    -2.2800 hc         0 *         0.100700
     45 H22          0.9970    10.1400    -0.5410 hc         0 *         0.109700
     46 H23         -0.2140     8.8440     1.1610 hc         0 *         0.115700
     47 H24          0.6820     2.6640    -1.7490 hc         0 *         0.108700
     48 H25         -2.8760     1.9320     0.4640 hc         0 *         0.106700
     49 H26         -2.5400     4.0180     1.6990 hc         0 *         0.113700
     50 H10         -3.1260    -0.9300    -1.8390 h1         0 *         0.077700
     51 H17         -3.7270     0.6760    -1.4210 h1         0 *         0.077700
     52 H18         -2.9560    -0.3380    -0.1850 h1         0 *         0.077700
@<TRIPOS>BOND
     1     1     2 1   
     2     1    26 1   
     3     1    27 1   
     4     1    28 1   
     5     2     3 1   
     6     2     7 1   
     7     2    29 1   
     8     3     4 1   
     9     3    30 1   
    10     3    31 1   
    11     4     5 1   
    12     4    32 1   
    13     4    33 1   
    14     5     6 1   
    15     5    34 1   
    16     5    35 1   
    17     6     7 1   
    18     6    36 1   
    19     6    37 1   
    20     7     8 1   
    21     7    38 1   
    22     8     9 1   
    23     8    39 1   
    24     8    40 1   
    25     9    10 1   
    26     9    41 1   
    27     9    42 1   
    28    10    11 1   
    29    10    19 1   
    30    11    12 1   
    31    11    16 1   
    32    11    16 1   
    33    12    13 1   
    34    12    13 1   
    35    12    43 1   
    36    13    14 1   
    37    13    44 1   
    38    14    15 1   
    39    14    15 1   
    40    14    45 1   
    41    15    16 1   
    42    15    46 1   
    43    16    17 1   
    44    17    18 1   
    45    18    19 1   
    46    18    23 1   
    47    18    23 1   
    48    19    20 1   
    49    19    20 1   
    50    20    21 1   
    51    20    47 1   
    52    21    22 1   
    53    21    22 1   
    54    21    24 1   
    55    22    23 1   
    56    22    48 1   
    57    23    49 1   
    58    24    25 1   
    59    25    50 1   
    60    25    51 1   
    61    25    52 1   
@<TRIPOS>SUBSTRUCTURE
     1 *           1 TEMP              0 ****  ****    0 ROOT
